Circuit: * C:\Users\Leon\Archivos personales\Universidad\4_GIERM\Instr_Acond_Signal\Proyecto\ServoAmplifier\ServoAmplifier\MOSFET_configuration\IRFP_mosfets\IRFP_Mosfet_AC_Analasys\analisis_AC_Mosfet.asc

WARNING: Less than two connections to node vsb.  This node is used by vsb.
Direct Newton iteration for .op point succeeded.

Date: Sun Jun 18 17:08:00 2023
Total elapsed time: 0.095 seconds.

tnom = 27
temp = 27
method = trap
totiter = 4
traniter = 0
tranpoints = 0
accept = 0
rejected = 0
matrix size = 10
fillins = 0
solver = Normal
Avg thread counts: 16.0/0.0/16.0/2.4
Matrix Compiler1:      19 opcodes
Matrix Compiler2: 592 bytes object code size
