Circuit: * C:\Users\Leon\Archivos personales\Universidad\4_GIERM\Instr_Acond_Signal\Proyecto\ServoAmplifier\ServoAmplifier\IGBT_configuration\CompleteServoAmplifierCircuit.asc

Direct Newton iteration for .op point succeeded.
Ignoring empty pin current: Ix(u1:1)
Ignoring empty pin current: Ix(u1:2)
Ignoring empty pin current: Ix(u2:1)
Ignoring empty pin current: Ix(u2:2)
Ignoring empty pin current: Ix(u3:1)
Ignoring empty pin current: Ix(u3:2)
Ignoring empty pin current: Ix(u4:1)
Ignoring empty pin current: Ix(u4:2)
Ignoring empty pin current: Ix(u5:1)
Ignoring empty pin current: Ix(u5:2)
Ignoring empty pin current: Ix(u6:1)
Ignoring empty pin current: Ix(u6:2)
Ignoring empty pin current: Ix(u7:1)
Ignoring empty pin current: Ix(u7:2)
Ignoring empty pin current: Ix(u8:1)
Ignoring empty pin current: Ix(u8:2)
Ignoring empty pin current: Ix(u9:1)
Ignoring empty pin current: Ix(u9:2)
Ignoring empty pin current: Ix(u1:1)
Ignoring empty pin current: Ix(u1:2)
Ignoring empty pin current: Ix(u2:1)
Ignoring empty pin current: Ix(u2:2)
Ignoring empty pin current: Ix(u3:1)
Ignoring empty pin current: Ix(u3:2)
Ignoring empty pin current: Ix(u4:1)
Ignoring empty pin current: Ix(u4:2)
Ignoring empty pin current: Ix(u5:1)
Ignoring empty pin current: Ix(u5:2)
Ignoring empty pin current: Ix(u6:1)
Ignoring empty pin current: Ix(u6:2)
Ignoring empty pin current: Ix(u7:1)
Ignoring empty pin current: Ix(u7:2)
Ignoring empty pin current: Ix(u8:1)
Ignoring empty pin current: Ix(u8:2)
Ignoring empty pin current: Ix(u9:1)
Ignoring empty pin current: Ix(u9:2)
Heightened Def Con from 0.00254408 to 0.00254408
Heightened Def Con from 0.00254585 to 0.00254585
Heightened Def Con from 0.00254586 to 0.00254586
Heightened Def Con from 0.00254586 to 0.00254586
Heightened Def Con from 0.00254586 to 0.00254586
Heightened Def Con from 0.00254944 to 0.00254944
Heightened Def Con from 0.00254949 to 0.00254949
Heightened Def Con from 0.00254961 to 0.00254961
Heightened Def Con from 0.00254996 to 0.00254996
Heightened Def Con from 0.00255 to 0.00255
Heightened Def Con from 0.00255209 to 0.00255209
Heightened Def Con from 0.00255209 to 0.00255209
Heightened Def Con from 0.00255209 to 0.00255209
Heightened Def Con from 0.00255209 to 0.00255209
Heightened Def Con from 0.00255212 to 0.00255212
Heightened Def Con from 0.00255212 to 0.00255212
Heightened Def Con from 0.00255212 to 0.00255212
Heightened Def Con from 0.00255212 to 0.00255212
Heightened Def Con from 0.00255212 to 0.00255212
Heightened Def Con from 0.00255212 to 0.00255212
Heightened Def Con from 0.00255212 to 0.00255212
Heightened Def Con from 0.00255212 to 0.00255212
Heightened Def Con from 0.00255213 to 0.00255213
Heightened Def Con from 0.00255213 to 0.00255213
Heightened Def Con from 0.00255213 to 0.00255213
Heightened Def Con from 0.00255213 to 0.00255213
Heightened Def Con from 0.00255213 to 0.00255213
Heightened Def Con from 0.00255213 to 0.00255214
Heightened Def Con from 0.00255214 to 0.00255214
Heightened Def Con from 0.00255214 to 0.00255214
Heightened Def Con from 0.00255214 to 0.00255214
Heightened Def Con from 0.00255214 to 0.00255214
Heightened Def Con from 0.00255215 to 0.00255215
Heightened Def Con from 0.00255215 to 0.00255215
Heightened Def Con from 0.00255215 to 0.00255215
Heightened Def Con from 0.00255215 to 0.00255215
Heightened Def Con from 0.00255215 to 0.00255215
Heightened Def Con from 0.00255215 to 0.00255215
Heightened Def Con from 0.00255215 to 0.00255215
Heightened Def Con from 0.00255215 to 0.00255215
Heightened Def Con from 0.00255215 to 0.00255215
Heightened Def Con from 0.00255215 to 0.00255215
Heightened Def Con from 0.00255215 to 0.00255215
Heightened Def Con from 0.00255216 to 0.00255216
Heightened Def Con from 0.0025522 to 0.0025522
Heightened Def Con from 0.0025522 to 0.0025522
Heightened Def Con from 0.00255246 to 0.00255246
Heightened Def Con from 0.00255246 to 0.00255246
Heightened Def Con from 0.00255246 to 0.00255247
Heightened Def Con from 0.00255247 to 0.00255247
Heightened Def Con from 0.00255248 to 0.00255248
Heightened Def Con from 0.00255248 to 0.00255248
Heightened Def Con from 0.00255248 to 0.00255248
Heightened Def Con from 0.00255248 to 0.00255248
Heightened Def Con from 0.00255249 to 0.00255249
Heightened Def Con from 0.00255249 to 0.00255249
Heightened Def Con from 0.0025525 to 0.0025525
Heightened Def Con from 0.0025525 to 0.0025525
Heightened Def Con from 0.0025525 to 0.0025525
Heightened Def Con from 0.00255251 to 0.00255251
Heightened Def Con from 0.00255251 to 0.00255251
Heightened Def Con from 0.00255252 to 0.00255252
Heightened Def Con from 0.00255252 to 0.00255252
Heightened Def Con from 0.00255253 to 0.00255253
Heightened Def Con from 0.00255253 to 0.00255253
Heightened Def Con from 0.00255253 to 0.00255253
Heightened Def Con from 0.00255253 to 0.00255253
Heightened Def Con from 0.00255253 to 0.00255253
Heightened Def Con from 0.00255262 to 0.00255262
Heightened Def Con from 0.00255263 to 0.00255263
Heightened Def Con from 0.00255264 to 0.00255264
Heightened Def Con from 0.0025527 to 0.0025527
Heightened Def Con from 0.0025527 to 0.0025527
Heightened Def Con from 0.0025527 to 0.0025527
Heightened Def Con from 0.0025527 to 0.0025527
Heightened Def Con from 0.00255275 to 0.00255275
Heightened Def Con from 0.00255276 to 0.00255277
Heightened Def Con from 0.00255278 to 0.00255278
Heightened Def Con from 0.00255278 to 0.00255278
Heightened Def Con from 0.00255278 to 0.00255278
Heightened Def Con from 0.00255278 to 0.00255278
Heightened Def Con from 0.00255278 to 0.00255278
Heightened Def Con from 0.00255279 to 0.00255279
Heightened Def Con from 0.00255279 to 0.00255279
Heightened Def Con from 0.00255344 to 0.00255344
Heightened Def Con from 0.00255346 to 0.00255346
Heightened Def Con from 0.00255348 to 0.00255348
Heightened Def Con from 0.00255349 to 0.00255349
Heightened Def Con from 0.00255546 to 0.00255546
Heightened Def Con from 0.00255585 to 0.00255585
Heightened Def Con from 0.00259592 to 0.00259592
Heightened Def Con from 0.0025989 to 0.00259891
Heightened Def Con from 0.0026 to 0.0026
Heightened Def Con from 0.00260201 to 0.00260201
Heightened Def Con from 0.00260202 to 0.00260202
Heightened Def Con from 0.00260202 to 0.00260202
Heightened Def Con from 0.00260203 to 0.00260203
Heightened Def Con from 0.00260204 to 0.00260204
Heightened Def Con from 0.0026025 to 0.00260251
Heightened Def Con from 0.00260251 to 0.00260251
Heightened Def Con from 0.00260251 to 0.00260251
Heightened Def Con from 0.00260251 to 0.00260251
Heightened Def Con from 0.00260251 to 0.00260251
Heightened Def Con from 0.00260254 to 0.00260254
Heightened Def Con from 0.00260254 to 0.00260254
Heightened Def Con from 0.00260254 to 0.00260254
Heightened Def Con from 0.00260267 to 0.00260267
Heightened Def Con from 0.00260267 to 0.00260267
Heightened Def Con from 0.00260267 to 0.00260268
Heightened Def Con from 0.00260269 to 0.00260269
Heightened Def Con from 0.0026027 to 0.0026027
Heightened Def Con from 0.00264607 to 0.00264607
Heightened Def Con from 0.00264608 to 0.00264608
Heightened Def Con from 0.00264608 to 0.00264608
Heightened Def Con from 0.00264608 to 0.00264608
Heightened Def Con from 0.00264608 to 0.00264608
Heightened Def Con from 0.00264608 to 0.00264609
Heightened Def Con from 0.00264609 to 0.00264609
Heightened Def Con from 0.00264612 to 0.00264613
Heightened Def Con from 0.00264613 to 0.00264613
Heightened Def Con from 0.00264614 to 0.00264614
Heightened Def Con from 0.00264614 to 0.00264614
Heightened Def Con from 0.00264614 to 0.00264614
Heightened Def Con from 0.00264866 to 0.00264866
Heightened Def Con from 0.00264945 to 0.00264945
Heightened Def Con from 0.00264952 to 0.00264952
Heightened Def Con from 0.00264966 to 0.00264966
Heightened Def Con from 0.00264966 to 0.00264966
Heightened Def Con from 0.00264972 to 0.00264972
Heightened Def Con from 0.00264973 to 0.00264973
Heightened Def Con from 0.00264987 to 0.00264987
Heightened Def Con from 0.00264988 to 0.00264988
Heightened Def Con from 0.00264988 to 0.00264988
Heightened Def Con from 0.00264988 to 0.00264989
Heightened Def Con from 0.00264998 to 0.00264998
Heightened Def Con from 0.00264998 to 0.00264998
Heightened Def Con from 0.00264998 to 0.00264998
Heightened Def Con from 0.00264998 to 0.00264999
Heightened Def Con from 0.00264999 to 0.00264999
Heightened Def Con from 0.00265 to 0.00265
Heightened Def Con from 0.00265008 to 0.00265008
Heightened Def Con from 0.00265011 to 0.00265011
Heightened Def Con from 0.00265011 to 0.00265011
Heightened Def Con from 0.00265019 to 0.0026502
Heightened Def Con from 0.00265021 to 0.00265021
Heightened Def Con from 0.00265021 to 0.00265022
Heightened Def Con from 0.00265023 to 0.00265023
Heightened Def Con from 0.00265213 to 0.00265213
Heightened Def Con from 0.00265213 to 0.00265213
Heightened Def Con from 0.00265213 to 0.00265214
Heightened Def Con from 0.00265214 to 0.00265214
Heightened Def Con from 0.00265214 to 0.00265214
Heightened Def Con from 0.00265215 to 0.00265215
Heightened Def Con from 0.00265215 to 0.00265215
Heightened Def Con from 0.00265216 to 0.00265216
Heightened Def Con from 0.00265216 to 0.00265216
Heightened Def Con from 0.00265217 to 0.00265217
Heightened Def Con from 0.00265217 to 0.00265217
Heightened Def Con from 0.00265217 to 0.00265217
Heightened Def Con from 0.00265218 to 0.00265218
Heightened Def Con from 0.00265218 to 0.00265218
Heightened Def Con from 0.00265268 to 0.00265268
Heightened Def Con from 0.00265268 to 0.00265268
Heightened Def Con from 0.00265269 to 0.00265269
Heightened Def Con from 0.00265269 to 0.00265269
Heightened Def Con from 0.00265269 to 0.00265269
Heightened Def Con from 0.00265277 to 0.00265277
Heightened Def Con from 0.00265279 to 0.00265279
Heightened Def Con from 0.00265279 to 0.00265279
Heightened Def Con from 0.00265526 to 0.00265526
Heightened Def Con from 0.00266059 to 0.00266059
Heightened Def Con from 0.00266068 to 0.00266068
Heightened Def Con from 0.00266068 to 0.00266068
Heightened Def Con from 0.00266124 to 0.00266124
Heightened Def Con from 0.00266258 to 0.00266258
Heightened Def Con from 0.00266259 to 0.00266259
Heightened Def Con from 0.0026626 to 0.0026626
Heightened Def Con from 0.00266264 to 0.00266264
Heightened Def Con from 0.00266264 to 0.00266264
Heightened Def Con from 0.00266268 to 0.00266268
Heightened Def Con from 0.00266268 to 0.00266269
Heightened Def Con from 0.0026627 to 0.0026627
Heightened Def Con from 0.00266271 to 0.00266272
Heightened Def Con from 0.00266278 to 0.00266278
Heightened Def Con from 0.00266278 to 0.00266278
Heightened Def Con from 0.0026628 to 0.0026628
Heightened Def Con from 0.0026628 to 0.0026628
Heightened Def Con from 0.0026628 to 0.0026628
Heightened Def Con from 0.00266282 to 0.00266282
Heightened Def Con from 0.00266288 to 0.00266289
Heightened Def Con from 0.00266292 to 0.00266292
Heightened Def Con from 0.00266292 to 0.00266292
Heightened Def Con from 0.00266454 to 0.00266454
Heightened Def Con from 0.00266454 to 0.00266454
Heightened Def Con from 0.00266455 to 0.00266455
Heightened Def Con from 0.00266455 to 0.00266455
Heightened Def Con from 0.00266455 to 0.00266455
Heightened Def Con from 0.00266455 to 0.00266456
Heightened Def Con from 0.0026646 to 0.0026646
Heightened Def Con from 0.00266463 to 0.00266463
Heightened Def Con from 0.00266463 to 0.00266463
Heightened Def Con from 0.00266465 to 0.00266465
Heightened Def Con from 0.00266468 to 0.00266468
Heightened Def Con from 0.00266469 to 0.0026647
Heightened Def Con from 0.00266471 to 0.00266472
Heightened Def Con from 0.00266473 to 0.00266473
Heightened Def Con from 0.00266478 to 0.00266478
Heightened Def Con from 0.00266535 to 0.00266535
Heightened Def Con from 0.00266536 to 0.00266536
Heightened Def Con from 0.00266537 to 0.00266537
Heightened Def Con from 0.00266537 to 0.00266537
Heightened Def Con from 0.0026654 to 0.00266541
Heightened Def Con from 0.00266816 to 0.00266816
Heightened Def Con from 0.00266821 to 0.00266821
Heightened Def Con from 0.00266821 to 0.00266821
Heightened Def Con from 0.00266841 to 0.00266841
Heightened Def Con from 0.00266854 to 0.00266854
Heightened Def Con from 0.00266881 to 0.00266881
Heightened Def Con from 0.00266881 to 0.00266881
Heightened Def Con from 0.00266881 to 0.00266881
Heightened Def Con from 0.00266885 to 0.00266885
Heightened Def Con from 0.00266951 to 0.00266951
Heightened Def Con from 0.00266951 to 0.00266951
Heightened Def Con from 0.00266955 to 0.00266955
Heightened Def Con from 0.00267248 to 0.00267248
Heightened Def Con from 0.00267261 to 0.00267262
Heightened Def Con from 0.00267263 to 0.00267263
Heightened Def Con from 0.00267263 to 0.00267263
Heightened Def Con from 0.00267263 to 0.00267263
Heightened Def Con from 0.00267288 to 0.00267288
Heightened Def Con from 0.00267288 to 0.00267288
Heightened Def Con from 0.00267294 to 0.00267294
Heightened Def Con from 0.00267296 to 0.00267296
Heightened Def Con from 0.00267311 to 0.00267311
Heightened Def Con from 0.00267311 to 0.00267311
Heightened Def Con from 0.00267312 to 0.00267312
Heightened Def Con from 0.00267313 to 0.00267313
Heightened Def Con from 0.00267314 to 0.00267314
Heightened Def Con from 0.00267314 to 0.00267314
Heightened Def Con from 0.00267316 to 0.00267316
Heightened Def Con from 0.00267316 to 0.00267317
Heightened Def Con from 0.00267317 to 0.00267317
Heightened Def Con from 0.00267317 to 0.00267317
Heightened Def Con from 0.00267318 to 0.00267318
Heightened Def Con from 0.00267318 to 0.00267318
Heightened Def Con from 0.00267318 to 0.00267318
Heightened Def Con from 0.00268081 to 0.00268081
Heightened Def Con from 0.00268081 to 0.00268081
Heightened Def Con from 0.00268081 to 0.00268081
Heightened Def Con from 0.00268093 to 0.00268093
Heightened Def Con from 0.00268094 to 0.00268094
Heightened Def Con from 0.00268154 to 0.00268154
Heightened Def Con from 0.00268158 to 0.00268158
Heightened Def Con from 0.00268158 to 0.00268158
Heightened Def Con from 0.00268341 to 0.00268341
Heightened Def Con from 0.00268341 to 0.00268341
Heightened Def Con from 0.00268342 to 0.00268342
Heightened Def Con from 0.00268342 to 0.00268343
Heightened Def Con from 0.00268362 to 0.00268363
Heightened Def Con from 0.00268363 to 0.00268363
Heightened Def Con from 0.00268363 to 0.00268363
Heightened Def Con from 0.00268371 to 0.00268371
Heightened Def Con from 0.00268372 to 0.00268372
Heightened Def Con from 0.00268372 to 0.00268372
Heightened Def Con from 0.00268373 to 0.00268373
Heightened Def Con from 0.00268373 to 0.00268373
Heightened Def Con from 0.00268373 to 0.00268373
Heightened Def Con from 0.0026839 to 0.0026839
Heightened Def Con from 0.0026839 to 0.0026839
Heightened Def Con from 0.00268392 to 0.00268392
Heightened Def Con from 0.0026879 to 0.0026879
Heightened Def Con from 0.00268797 to 0.00268797
Heightened Def Con from 0.00268797 to 0.00268797
Heightened Def Con from 0.00268797 to 0.00268797
Heightened Def Con from 0.002688 to 0.002688
Heightened Def Con from 0.00268801 to 0.00268801
Heightened Def Con from 0.00268801 to 0.00268801
Heightened Def Con from 0.00268804 to 0.00268804
Heightened Def Con from 0.00268804 to 0.00268804
Heightened Def Con from 0.00268806 to 0.00268806
Heightened Def Con from 0.00268834 to 0.00268834
Heightened Def Con from 0.00268835 to 0.00268835
Heightened Def Con from 0.00269616 to 0.00269616
Heightened Def Con from 0.00269616 to 0.00269616
Heightened Def Con from 0.00269618 to 0.00269619
Heightened Def Con from 0.00269619 to 0.00269619
Heightened Def Con from 0.00269652 to 0.00269652
Heightened Def Con from 0.00269652 to 0.00269652
Heightened Def Con from 0.00269653 to 0.00269653
Heightened Def Con from 0.0026971 to 0.0026971
Heightened Def Con from 0.0026971 to 0.0026971
Heightened Def Con from 0.0026971 to 0.0026971
Heightened Def Con from 0.00269711 to 0.00269711
Heightened Def Con from 0.00269713 to 0.00269713
Heightened Def Con from 0.00269713 to 0.00269713
Heightened Def Con from 0.00269716 to 0.00269716
Heightened Def Con from 0.00269721 to 0.00269721
Heightened Def Con from 0.00269721 to 0.00269721
Heightened Def Con from 0.00269728 to 0.00269728
Heightened Def Con from 0.00269757 to 0.00269757
Heightened Def Con from 0.00269757 to 0.00269757
Heightened Def Con from 0.00269758 to 0.00269758
Heightened Def Con from 0.00269758 to 0.00269758
Heightened Def Con from 0.00269759 to 0.00269759
Heightened Def Con from 0.0026976 to 0.0026976
Heightened Def Con from 0.00269761 to 0.00269761
Heightened Def Con from 0.00269761 to 0.00269761
Heightened Def Con from 0.00269761 to 0.00269761
Heightened Def Con from 0.00269761 to 0.00269761
Heightened Def Con from 0.00269761 to 0.00269762
Heightened Def Con from 0.00269765 to 0.00269766
Heightened Def Con from 0.0026977 to 0.0026977
Heightened Def Con from 0.00269904 to 0.00269904
Heightened Def Con from 0.00269905 to 0.00269905
Heightened Def Con from 0.00269905 to 0.00269905
Heightened Def Con from 0.0026992 to 0.00269921
Heightened Def Con from 0.00269923 to 0.00269923
Heightened Def Con from 0.00269926 to 0.00269926
Heightened Def Con from 0.00269981 to 0.00269981
Heightened Def Con from 0.00269994 to 0.00269995
Heightened Def Con from 0.00269996 to 0.00269996
Heightened Def Con from 0.00269996 to 0.00269996
Heightened Def Con from 0.00269996 to 0.00269997
Heightened Def Con from 0.00269997 to 0.00269997
Heightened Def Con from 0.0027 to 0.0027
Heightened Def Con from 0.00270106 to 0.00270106
Heightened Def Con from 0.00270106 to 0.00270106
Heightened Def Con from 0.00270116 to 0.00270116
Heightened Def Con from 0.00270118 to 0.00270118
Heightened Def Con from 0.00270118 to 0.00270118
Heightened Def Con from 0.00270119 to 0.00270119
Heightened Def Con from 0.00270119 to 0.00270119
Heightened Def Con from 0.00270121 to 0.00270122
Heightened Def Con from 0.00270122 to 0.00270122
Heightened Def Con from 0.00270122 to 0.00270122
Heightened Def Con from 0.00270122 to 0.00270122
Heightened Def Con from 0.00270122 to 0.00270122
Heightened Def Con from 0.00270137 to 0.00270137
Heightened Def Con from 0.00270142 to 0.00270142
Heightened Def Con from 0.00270142 to 0.00270142
Heightened Def Con from 0.00270144 to 0.00270144
Heightened Def Con from 0.00270144 to 0.00270144
Heightened Def Con from 0.00270144 to 0.00270144
Heightened Def Con from 0.00270144 to 0.00270144
Heightened Def Con from 0.00270144 to 0.00270144
Heightened Def Con from 0.00270144 to 0.00270144
Heightened Def Con from 0.00270145 to 0.00270145
Heightened Def Con from 0.00270154 to 0.00270154
Heightened Def Con from 0.00270154 to 0.00270154
Heightened Def Con from 0.00270154 to 0.00270155
Heightened Def Con from 0.00270155 to 0.00270155
Heightened Def Con from 0.00270157 to 0.00270157
Heightened Def Con from 0.00270157 to 0.00270157
Heightened Def Con from 0.00270158 to 0.00270158
Heightened Def Con from 0.00270158 to 0.00270158
Heightened Def Con from 0.00270158 to 0.00270158
Heightened Def Con from 0.00270158 to 0.00270158
Heightened Def Con from 0.00270159 to 0.00270159
Heightened Def Con from 0.00270159 to 0.0027016
Heightened Def Con from 0.00270166 to 0.00270166
Heightened Def Con from 0.00270166 to 0.00270166
Heightened Def Con from 0.00270168 to 0.00270168
Heightened Def Con from 0.00270239 to 0.00270239
Heightened Def Con from 0.00270239 to 0.00270239
Heightened Def Con from 0.00270269 to 0.0027027
Heightened Def Con from 0.0027027 to 0.0027027
Heightened Def Con from 0.00273006 to 0.00273006
Heightened Def Con from 0.00273006 to 0.00273006
Heightened Def Con from 0.00273008 to 0.00273008
Heightened Def Con from 0.00273012 to 0.00273012
Heightened Def Con from 0.00273012 to 0.00273012
Heightened Def Con from 0.00273013 to 0.00273013
Heightened Def Con from 0.00273014 to 0.00273014
Heightened Def Con from 0.00273014 to 0.00273014
Heightened Def Con from 0.00273014 to 0.00273014
Heightened Def Con from 0.00273017 to 0.00273018
Heightened Def Con from 0.0027302 to 0.0027302
Heightened Def Con from 0.00273023 to 0.00273023
Heightened Def Con from 0.00273026 to 0.00273026
Heightened Def Con from 0.00273026 to 0.00273026
Heightened Def Con from 0.00273026 to 0.00273026
Heightened Def Con from 0.00273026 to 0.00273027
Heightened Def Con from 0.00273029 to 0.00273029
Heightened Def Con from 0.00273029 to 0.00273029
Heightened Def Con from 0.0027303 to 0.0027303
Heightened Def Con from 0.00273032 to 0.00273033
Heightened Def Con from 0.00273133 to 0.00273133
Heightened Def Con from 0.00273134 to 0.00273134
Heightened Def Con from 0.00273177 to 0.00273177
Heightened Def Con from 0.00273178 to 0.00273178
Heightened Def Con from 0.00273275 to 0.00273275
Heightened Def Con from 0.00273275 to 0.00273275
Heightened Def Con from 0.00273275 to 0.00273275
Heightened Def Con from 0.00273276 to 0.00273276
Heightened Def Con from 0.00273309 to 0.00273309
Heightened Def Con from 0.00273661 to 0.00273661
Heightened Def Con from 0.00273663 to 0.00273663
Heightened Def Con from 0.00273732 to 0.00273732
Heightened Def Con from 0.0027374 to 0.0027374
Heightened Def Con from 0.0027374 to 0.0027374
Heightened Def Con from 0.00273741 to 0.00273741
Heightened Def Con from 0.00273867 to 0.00273867
Heightened Def Con from 0.00273868 to 0.00273868
Heightened Def Con from 0.00273868 to 0.00273868
Heightened Def Con from 0.0027387 to 0.00273871
Heightened Def Con from 0.00273871 to 0.00273871
Heightened Def Con from 0.00273871 to 0.00273872
Heightened Def Con from 0.00273971 to 0.00273971
Heightened Def Con from 0.00273971 to 0.00273971
Heightened Def Con from 0.00273971 to 0.00273971
Heightened Def Con from 0.00274231 to 0.00274231
Heightened Def Con from 0.00274232 to 0.00274232
Heightened Def Con from 0.00274301 to 0.00274301
Heightened Def Con from 0.00274301 to 0.00274301
Heightened Def Con from 0.00274303 to 0.00274304
Heightened Def Con from 0.0027431 to 0.0027431
Heightened Def Con from 0.00274521 to 0.00274521
Heightened Def Con from 0.0027454 to 0.0027454
Heightened Def Con from 0.0027454 to 0.0027454
Heightened Def Con from 0.00274555 to 0.00274555
Heightened Def Con from 0.00274556 to 0.00274556
Heightened Def Con from 0.00274565 to 0.00274565
Heightened Def Con from 0.00274565 to 0.00274565
Heightened Def Con from 0.00274566 to 0.00274566
Heightened Def Con from 0.00274613 to 0.00274613
Heightened Def Con from 0.00274625 to 0.00274625
Heightened Def Con from 0.00274625 to 0.00274625
Heightened Def Con from 0.00274627 to 0.00274628
Heightened Def Con from 0.00274629 to 0.00274629
Heightened Def Con from 0.00274652 to 0.00274652
Heightened Def Con from 0.00274653 to 0.00274653
Heightened Def Con from 0.00274653 to 0.00274653
Heightened Def Con from 0.00274653 to 0.00274653
Heightened Def Con from 0.00274659 to 0.00274659
Heightened Def Con from 0.00274659 to 0.0027466
Heightened Def Con from 0.00274675 to 0.00274675
Heightened Def Con from 0.00274887 to 0.00274888
Heightened Def Con from 0.00274956 to 0.00274957
Heightened Def Con from 0.00274957 to 0.00274957
Heightened Def Con from 0.00274965 to 0.00274965
Heightened Def Con from 0.00274965 to 0.00274965
Heightened Def Con from 0.00274984 to 0.00274984
Heightened Def Con from 0.00274999 to 0.00274999
Heightened Def Con from 0.00274999 to 0.00274999
Heightened Def Con from 0.00274999 to 0.00275
Heightened Def Con from 0.00275 to 0.00275
Heightened Def Con from 0.00275 to 0.00275
Heightened Def Con from 0.00275194 to 0.00275194
Heightened Def Con from 0.00275196 to 0.00275196
Heightened Def Con from 0.00275197 to 0.00275198
Heightened Def Con from 0.00275198 to 0.00275198
Heightened Def Con from 0.00275199 to 0.002752
Heightened Def Con from 0.00275201 to 0.00275202
Heightened Def Con from 0.00275203 to 0.00275203
Heightened Def Con from 0.00275204 to 0.00275204
Heightened Def Con from 0.00275249 to 0.00275249
Heightened Def Con from 0.00275249 to 0.00275249
Heightened Def Con from 0.00275252 to 0.00275252
Heightened Def Con from 0.00275257 to 0.00275257
Heightened Def Con from 0.00275258 to 0.00275258
Heightened Def Con from 0.00275259 to 0.00275259
Heightened Def Con from 0.00275267 to 0.00275267
Heightened Def Con from 0.00275269 to 0.00275269
Heightened Def Con from 0.0027527 to 0.0027527
Heightened Def Con from 0.0027527 to 0.0027527
Heightened Def Con from 0.0027527 to 0.0027527
Heightened Def Con from 0.0027527 to 0.0027527
Heightened Def Con from 0.00275275 to 0.00275275
Heightened Def Con from 0.00275275 to 0.00275276
Heightened Def Con from 0.00275276 to 0.00275276
Heightened Def Con from 0.00275276 to 0.00275277
Heightened Def Con from 0.00275277 to 0.00275277
Heightened Def Con from 0.00275277 to 0.00275277
Heightened Def Con from 0.00275278 to 0.00275278
Heightened Def Con from 0.00275278 to 0.00275278
Heightened Def Con from 0.00275278 to 0.00275278
Heightened Def Con from 0.00275279 to 0.00275279
Heightened Def Con from 0.00275279 to 0.00275279
Heightened Def Con from 0.00275279 to 0.00275279
Heightened Def Con from 0.00275279 to 0.00275279
Heightened Def Con from 0.00275279 to 0.0027528
Heightened Def Con from 0.0027529 to 0.0027529
Heightened Def Con from 0.00275291 to 0.00275291
Heightened Def Con from 0.00275291 to 0.00275291
Heightened Def Con from 0.00275292 to 0.00275292
Heightened Def Con from 0.00275292 to 0.00275292
Heightened Def Con from 0.00275293 to 0.00275293
Heightened Def Con from 0.00275299 to 0.00275299
Heightened Def Con from 0.00275301 to 0.00275301
Heightened Def Con from 0.0027531 to 0.00275311
Heightened Def Con from 0.00275311 to 0.00275311
Heightened Def Con from 0.00275312 to 0.00275312
Heightened Def Con from 0.00275312 to 0.00275312
Heightened Def Con from 0.00275312 to 0.00275312
Heightened Def Con from 0.00275312 to 0.00275312
Heightened Def Con from 0.00275312 to 0.00275313
Heightened Def Con from 0.00275313 to 0.00275313
Heightened Def Con from 0.00275313 to 0.00275313
Heightened Def Con from 0.00275314 to 0.00275314
Heightened Def Con from 0.00275314 to 0.00275314
Heightened Def Con from 0.00275314 to 0.00275314
Heightened Def Con from 0.00275314 to 0.00275314
Heightened Def Con from 0.00275315 to 0.00275315
Heightened Def Con from 0.00275315 to 0.00275315
Heightened Def Con from 0.00275315 to 0.00275315
Heightened Def Con from 0.00275315 to 0.00275315
Heightened Def Con from 0.00275315 to 0.00275316
Heightened Def Con from 0.00275316 to 0.00275316
Heightened Def Con from 0.00275316 to 0.00275316
Heightened Def Con from 0.00275316 to 0.00275316
Heightened Def Con from 0.00275316 to 0.00275316
Heightened Def Con from 0.00275317 to 0.00275317
Heightened Def Con from 0.00275317 to 0.00275317
Heightened Def Con from 0.00275317 to 0.00275317
Heightened Def Con from 0.00275317 to 0.00275317
Heightened Def Con from 0.00275319 to 0.00275319
Heightened Def Con from 0.00275321 to 0.00275321
Heightened Def Con from 0.0027599 to 0.0027599
Heightened Def Con from 0.0027599 to 0.0027599
Heightened Def Con from 0.00276049 to 0.00276049
Heightened Def Con from 0.0027605 to 0.0027605
Heightened Def Con from 0.0027605 to 0.0027605
Heightened Def Con from 0.00276057 to 0.00276057
Heightened Def Con from 0.00276057 to 0.00276057
Heightened Def Con from 0.00276057 to 0.00276057
Heightened Def Con from 0.00276057 to 0.00276057
Heightened Def Con from 0.00276058 to 0.00276058
Heightened Def Con from 0.00276058 to 0.00276058
Heightened Def Con from 0.00276058 to 0.00276058
Heightened Def Con from 0.00276058 to 0.00276058
Heightened Def Con from 0.00276059 to 0.00276059
Heightened Def Con from 0.00276059 to 0.00276059
Heightened Def Con from 0.00276061 to 0.00276061
Heightened Def Con from 0.00276061 to 0.00276061
Heightened Def Con from 0.00276062 to 0.00276062
Heightened Def Con from 0.00276507 to 0.00276507
Heightened Def Con from 0.00276508 to 0.00276508
Heightened Def Con from 0.00276508 to 0.00276508
Heightened Def Con from 0.00276511 to 0.00276511
Heightened Def Con from 0.00276512 to 0.00276512
Heightened Def Con from 0.00276552 to 0.00276552
Heightened Def Con from 0.00276553 to 0.00276553
Heightened Def Con from 0.00276553 to 0.00276553
Heightened Def Con from 0.00276557 to 0.00276557
Heightened Def Con from 0.00277283 to 0.00277284
Heightened Def Con from 0.00277284 to 0.00277284
Heightened Def Con from 0.00277284 to 0.00277284
Heightened Def Con from 0.00277284 to 0.00277284
Heightened Def Con from 0.00277284 to 0.00277284
Heightened Def Con from 0.00277284 to 0.00277284
Heightened Def Con from 0.00277284 to 0.00277284
Heightened Def Con from 0.00277284 to 0.00277284
Heightened Def Con from 0.00277284 to 0.00277284
Heightened Def Con from 0.00277285 to 0.00277285
Heightened Def Con from 0.00277285 to 0.00277285
Heightened Def Con from 0.00277285 to 0.00277285
Heightened Def Con from 0.00277285 to 0.00277285
Heightened Def Con from 0.00277285 to 0.00277285
Heightened Def Con from 0.00277285 to 0.00277285
Heightened Def Con from 0.00277285 to 0.00277285
Heightened Def Con from 0.00277287 to 0.00277287
Heightened Def Con from 0.00277287 to 0.00277288
Heightened Def Con from 0.00277288 to 0.00277288
Heightened Def Con from 0.00277288 to 0.00277288
Heightened Def Con from 0.00277288 to 0.00277288
Heightened Def Con from 0.00277288 to 0.00277288
Heightened Def Con from 0.00277288 to 0.00277288
Heightened Def Con from 0.00277304 to 0.00277304
Heightened Def Con from 0.00277304 to 0.00277304
Heightened Def Con from 0.00277304 to 0.00277304
Heightened Def Con from 0.00277304 to 0.00277304
Heightened Def Con from 0.00277304 to 0.00277304
Heightened Def Con from 0.00277304 to 0.00277304
Heightened Def Con from 0.00277304 to 0.00277305
Heightened Def Con from 0.00277305 to 0.00277305
Heightened Def Con from 0.00277305 to 0.00277305
Heightened Def Con from 0.00277305 to 0.00277305
Heightened Def Con from 0.00277305 to 0.00277305
Heightened Def Con from 0.00277305 to 0.00277305
Heightened Def Con from 0.00277306 to 0.00277306
Heightened Def Con from 0.00277306 to 0.00277306
Heightened Def Con from 0.00277319 to 0.00277319
Heightened Def Con from 0.00277359 to 0.00277359
Heightened Def Con from 0.0027736 to 0.0027736
Heightened Def Con from 0.0027736 to 0.0027736
Heightened Def Con from 0.0027736 to 0.0027736
Heightened Def Con from 0.0027736 to 0.0027736
Heightened Def Con from 0.0027736 to 0.0027736
Heightened Def Con from 0.0027736 to 0.00277361
Heightened Def Con from 0.00277362 to 0.00277362
Heightened Def Con from 0.00277362 to 0.00277362
Heightened Def Con from 0.00277362 to 0.00277362
Heightened Def Con from 0.00277362 to 0.00277362
Heightened Def Con from 0.00277362 to 0.00277362
Heightened Def Con from 0.00277362 to 0.00277362
Heightened Def Con from 0.00277362 to 0.00277362
Heightened Def Con from 0.00277362 to 0.00277363
Heightened Def Con from 0.00277363 to 0.00277363
Heightened Def Con from 0.00277363 to 0.00277363
Heightened Def Con from 0.00277363 to 0.00277363
Heightened Def Con from 0.00277363 to 0.00277363
Heightened Def Con from 0.00277389 to 0.00277389
Heightened Def Con from 0.00277389 to 0.00277389
Heightened Def Con from 0.00277389 to 0.00277389
Heightened Def Con from 0.00277392 to 0.00277392
Heightened Def Con from 0.00277392 to 0.00277392
Heightened Def Con from 0.00277392 to 0.00277392
Heightened Def Con from 0.00277392 to 0.00277392
Heightened Def Con from 0.00277392 to 0.00277392
Heightened Def Con from 0.00277396 to 0.00277396
Heightened Def Con from 0.00277396 to 0.00277396
Heightened Def Con from 0.00277396 to 0.00277396
Heightened Def Con from 0.00277396 to 0.00277396
Heightened Def Con from 0.002774 to 0.002774
Heightened Def Con from 0.002774 to 0.002774
Heightened Def Con from 0.00277401 to 0.00277401
Heightened Def Con from 0.00277401 to 0.00277402
Heightened Def Con from 0.00277409 to 0.00277409
Heightened Def Con from 0.00277409 to 0.00277409
Heightened Def Con from 0.00277409 to 0.00277409
Heightened Def Con from 0.00277409 to 0.00277409
Heightened Def Con from 0.00277411 to 0.00277411
Heightened Def Con from 0.00277411 to 0.00277411
Heightened Def Con from 0.00277411 to 0.00277411
Heightened Def Con from 0.00277411 to 0.00277411
Heightened Def Con from 0.00277411 to 0.00277411
Heightened Def Con from 0.00277413 to 0.00277413
Heightened Def Con from 0.00277413 to 0.00277413
Heightened Def Con from 0.00277414 to 0.00277414
Heightened Def Con from 0.00277415 to 0.00277415
Heightened Def Con from 0.00277415 to 0.00277415
Heightened Def Con from 0.00277415 to 0.00277416
Heightened Def Con from 0.00277416 to 0.00277416
Heightened Def Con from 0.00277416 to 0.00277417
Heightened Def Con from 0.00277417 to 0.00277417
Heightened Def Con from 0.00277417 to 0.00277417
Heightened Def Con from 0.00277417 to 0.00277417
Heightened Def Con from 0.00277418 to 0.00277418
Heightened Def Con from 0.00277418 to 0.00277418
Heightened Def Con from 0.00277418 to 0.00277419
Heightened Def Con from 0.00277419 to 0.00277419
Heightened Def Con from 0.00277419 to 0.00277419
Heightened Def Con from 0.00277419 to 0.00277419
Heightened Def Con from 0.00277419 to 0.00277419
Heightened Def Con from 0.00277421 to 0.00277421
Heightened Def Con from 0.00277421 to 0.00277421
Heightened Def Con from 0.00277421 to 0.00277421
Heightened Def Con from 0.00277421 to 0.00277421
Heightened Def Con from 0.00277421 to 0.00277421
Heightened Def Con from 0.00277421 to 0.00277421
Heightened Def Con from 0.00277421 to 0.00277421
Heightened Def Con from 0.00277421 to 0.00277421
Heightened Def Con from 0.00277428 to 0.00277429
Heightened Def Con from 0.00277429 to 0.00277429
Heightened Def Con from 0.00277429 to 0.00277429
Heightened Def Con from 0.00277429 to 0.00277429
Heightened Def Con from 0.00277429 to 0.00277429
Heightened Def Con from 0.00277435 to 0.00277435
Heightened Def Con from 0.00277435 to 0.00277435
Heightened Def Con from 0.00277435 to 0.00277435
Heightened Def Con from 0.00277435 to 0.00277435
Heightened Def Con from 0.00277436 to 0.00277436
Heightened Def Con from 0.00277436 to 0.00277436
Heightened Def Con from 0.00277436 to 0.00277436
Heightened Def Con from 0.00277437 to 0.00277437
Heightened Def Con from 0.00277437 to 0.00277437
Heightened Def Con from 0.00277437 to 0.00277437
Heightened Def Con from 0.0027744 to 0.0027744
Heightened Def Con from 0.0027744 to 0.0027744
Heightened Def Con from 0.0027744 to 0.0027744
Heightened Def Con from 0.0027744 to 0.0027744
Heightened Def Con from 0.0027744 to 0.0027744
Heightened Def Con from 0.0027744 to 0.0027744
Heightened Def Con from 0.0027744 to 0.0027744
Heightened Def Con from 0.0027744 to 0.0027744
Heightened Def Con from 0.0027744 to 0.00277441
Heightened Def Con from 0.00277441 to 0.00277441
Heightened Def Con from 0.00277441 to 0.00277441
Heightened Def Con from 0.00277441 to 0.00277441
Heightened Def Con from 0.00277441 to 0.00277441
Heightened Def Con from 0.00277441 to 0.00277441
Heightened Def Con from 0.00277442 to 0.00277442
Heightened Def Con from 0.00277444 to 0.00277444
Heightened Def Con from 0.00277445 to 0.00277445
Heightened Def Con from 0.00277445 to 0.00277445
Heightened Def Con from 0.00277445 to 0.00277445
Heightened Def Con from 0.00277445 to 0.00277445
Heightened Def Con from 0.00277445 to 0.00277445
Heightened Def Con from 0.00277446 to 0.00277446
Heightened Def Con from 0.00277446 to 0.00277446
Heightened Def Con from 0.00277446 to 0.00277446
Heightened Def Con from 0.00277446 to 0.00277447
Heightened Def Con from 0.00277447 to 0.00277447
Heightened Def Con from 0.00277447 to 0.00277447
Heightened Def Con from 0.00277451 to 0.00277451
Heightened Def Con from 0.00277451 to 0.00277452
Heightened Def Con from 0.00277452 to 0.00277452
Heightened Def Con from 0.00277452 to 0.00277452
Heightened Def Con from 0.00277452 to 0.00277452
Heightened Def Con from 0.00277452 to 0.00277452
Heightened Def Con from 0.00277452 to 0.00277452
Heightened Def Con from 0.00277452 to 0.00277452
Heightened Def Con from 0.00277452 to 0.00277453
Heightened Def Con from 0.00277453 to 0.00277453
Heightened Def Con from 0.00277453 to 0.00277454
Heightened Def Con from 0.00277455 to 0.00277455
Heightened Def Con from 0.00277455 to 0.00277455
Heightened Def Con from 0.00277455 to 0.00277455
Heightened Def Con from 0.00277455 to 0.00277455
Heightened Def Con from 0.00277455 to 0.00277455
Heightened Def Con from 0.00277455 to 0.00277455
Heightened Def Con from 0.00277455 to 0.00277455
Heightened Def Con from 0.00277455 to 0.00277455
Heightened Def Con from 0.00277455 to 0.00277455
Heightened Def Con from 0.00277455 to 0.00277455
Heightened Def Con from 0.00277455 to 0.00277455
Heightened Def Con from 0.00277455 to 0.00277456
Heightened Def Con from 0.00277456 to 0.00277456
Heightened Def Con from 0.00277456 to 0.00277456
Heightened Def Con from 0.00277456 to 0.00277456
Heightened Def Con from 0.00277456 to 0.00277456
Heightened Def Con from 0.00277456 to 0.00277456
Heightened Def Con from 0.00277456 to 0.00277456
Heightened Def Con from 0.00277456 to 0.00277457
Heightened Def Con from 0.00277457 to 0.00277457
Heightened Def Con from 0.00277457 to 0.00277457
Heightened Def Con from 0.00277457 to 0.00277457
Heightened Def Con from 0.00277459 to 0.00277459
Heightened Def Con from 0.00277459 to 0.00277459
Heightened Def Con from 0.00277459 to 0.00277459
Heightened Def Con from 0.00277459 to 0.00277459
Heightened Def Con from 0.00277459 to 0.00277459
Heightened Def Con from 0.00277459 to 0.00277459
Heightened Def Con from 0.00277459 to 0.00277459
Heightened Def Con from 0.00277463 to 0.00277463
Heightened Def Con from 0.00277463 to 0.00277463
Heightened Def Con from 0.00277463 to 0.00277463
Heightened Def Con from 0.00277463 to 0.00277463
Heightened Def Con from 0.00277463 to 0.00277463
Heightened Def Con from 0.00277463 to 0.00277463
Heightened Def Con from 0.00277463 to 0.00277464
Heightened Def Con from 0.00277464 to 0.00277464
Heightened Def Con from 0.00277464 to 0.00277464
Heightened Def Con from 0.00277465 to 0.00277465
Heightened Def Con from 0.00277465 to 0.00277465
Heightened Def Con from 0.00277465 to 0.00277465
Heightened Def Con from 0.00277465 to 0.00277465
Heightened Def Con from 0.00277465 to 0.00277465
Heightened Def Con from 0.00277465 to 0.00277465
Heightened Def Con from 0.00277465 to 0.00277465
Heightened Def Con from 0.00277472 to 0.00277472
Heightened Def Con from 0.00277473 to 0.00277473
Heightened Def Con from 0.00277473 to 0.00277473
Heightened Def Con from 0.00277474 to 0.00277474
Heightened Def Con from 0.00277474 to 0.00277474
Heightened Def Con from 0.00277474 to 0.00277474
Heightened Def Con from 0.00277474 to 0.00277474
Heightened Def Con from 0.00277474 to 0.00277474
Heightened Def Con from 0.00277474 to 0.00277474
Heightened Def Con from 0.0027749 to 0.0027749
Heightened Def Con from 0.00277492 to 0.00277492
Heightened Def Con from 0.00277492 to 0.00277492
Heightened Def Con from 0.00277492 to 0.00277492
Heightened Def Con from 0.00277492 to 0.00277492
Heightened Def Con from 0.00277492 to 0.00277492
Heightened Def Con from 0.00277492 to 0.00277492
Heightened Def Con from 0.00277492 to 0.00277492
Heightened Def Con from 0.00277492 to 0.00277492
Heightened Def Con from 0.00277492 to 0.00277492
Heightened Def Con from 0.00277494 to 0.00277494
Heightened Def Con from 0.00277495 to 0.00277495
Heightened Def Con from 0.00277495 to 0.00277495
Heightened Def Con from 0.00277495 to 0.00277495
Heightened Def Con from 0.00277495 to 0.00277495
Heightened Def Con from 0.00277496 to 0.00277496
Heightened Def Con from 0.00277496 to 0.00277496
Heightened Def Con from 0.00277496 to 0.00277497
Heightened Def Con from 0.00277497 to 0.00277497
Heightened Def Con from 0.00277497 to 0.00277497
Heightened Def Con from 0.00277497 to 0.00277497
Heightened Def Con from 0.00277497 to 0.00277497
Heightened Def Con from 0.00277497 to 0.00277497
Heightened Def Con from 0.00277497 to 0.00277497
Heightened Def Con from 0.00277497 to 0.00277497
Heightened Def Con from 0.00277497 to 0.00277497
Heightened Def Con from 0.00277498 to 0.00277498
Heightened Def Con from 0.00277498 to 0.00277498
Heightened Def Con from 0.00277498 to 0.00277498
Heightened Def Con from 0.00277498 to 0.00277498
Heightened Def Con from 0.00277498 to 0.00277498
Heightened Def Con from 0.00277498 to 0.00277498
Heightened Def Con from 0.00277498 to 0.00277498
Heightened Def Con from 0.00277505 to 0.00277506
Heightened Def Con from 0.00277506 to 0.00277506
Heightened Def Con from 0.00277506 to 0.00277506
Heightened Def Con from 0.00277506 to 0.00277506
Heightened Def Con from 0.00277506 to 0.00277506
Heightened Def Con from 0.00277506 to 0.00277507
Heightened Def Con from 0.00277507 to 0.00277507
Heightened Def Con from 0.00277521 to 0.00277521
Heightened Def Con from 0.00277528 to 0.00277528
Heightened Def Con from 0.00277528 to 0.00277528
Heightened Def Con from 0.00277528 to 0.00277528
Heightened Def Con from 0.00277528 to 0.00277528
Heightened Def Con from 0.00277528 to 0.00277528
Heightened Def Con from 0.00277529 to 0.00277529
Heightened Def Con from 0.00277529 to 0.00277529
Heightened Def Con from 0.00277529 to 0.00277529
Heightened Def Con from 0.00277529 to 0.00277529
Heightened Def Con from 0.00277529 to 0.0027753
Heightened Def Con from 0.0027753 to 0.0027753
Heightened Def Con from 0.0027753 to 0.0027753
Heightened Def Con from 0.0027753 to 0.0027753
Heightened Def Con from 0.0027753 to 0.00277531
Heightened Def Con from 0.00277531 to 0.00277531
Heightened Def Con from 0.00277531 to 0.00277531
Heightened Def Con from 0.00277531 to 0.00277531
Heightened Def Con from 0.00277531 to 0.00277531
Heightened Def Con from 0.00277531 to 0.00277531
Heightened Def Con from 0.00277531 to 0.00277531
Heightened Def Con from 0.00277535 to 0.00277535
Heightened Def Con from 0.00277535 to 0.00277535
Heightened Def Con from 0.00277535 to 0.00277535
Heightened Def Con from 0.00277535 to 0.00277535
Heightened Def Con from 0.00277535 to 0.00277535
Heightened Def Con from 0.00277535 to 0.00277536
Heightened Def Con from 0.00277536 to 0.00277536
Heightened Def Con from 0.00277536 to 0.00277536
Heightened Def Con from 0.00277536 to 0.00277536
Heightened Def Con from 0.00277536 to 0.00277536
Heightened Def Con from 0.00277536 to 0.00277537
Heightened Def Con from 0.00277537 to 0.00277537
Heightened Def Con from 0.00277537 to 0.00277537
Heightened Def Con from 0.00277537 to 0.00277537
Heightened Def Con from 0.00277537 to 0.00277537
Heightened Def Con from 0.00277537 to 0.00277537
Heightened Def Con from 0.00277537 to 0.00277537
Heightened Def Con from 0.00277537 to 0.00277537
Heightened Def Con from 0.00277537 to 0.00277537
Heightened Def Con from 0.00277537 to 0.00277537
Heightened Def Con from 0.00277537 to 0.00277537
Heightened Def Con from 0.00277537 to 0.00277537
Heightened Def Con from 0.00277537 to 0.00277537
Heightened Def Con from 0.00277538 to 0.00277538
Heightened Def Con from 0.00277538 to 0.00277538
Heightened Def Con from 0.00277538 to 0.00277538
Heightened Def Con from 0.00277538 to 0.00277538
Heightened Def Con from 0.00277538 to 0.00277539
Heightened Def Con from 0.00277542 to 0.00277542
Heightened Def Con from 0.00277542 to 0.00277542
Heightened Def Con from 0.00277542 to 0.00277542
Heightened Def Con from 0.00277542 to 0.00277542
Heightened Def Con from 0.00277542 to 0.00277542
Heightened Def Con from 0.00277542 to 0.00277542
Heightened Def Con from 0.00277542 to 0.00277542
Heightened Def Con from 0.00277542 to 0.00277542
Heightened Def Con from 0.00277542 to 0.00277542
Heightened Def Con from 0.00277542 to 0.00277542
Heightened Def Con from 0.00277542 to 0.00277543
Heightened Def Con from 0.00277543 to 0.00277543
Heightened Def Con from 0.00277543 to 0.00277543
Heightened Def Con from 0.00277543 to 0.00277543
Heightened Def Con from 0.00277544 to 0.00277544
Heightened Def Con from 0.00277544 to 0.00277544
Heightened Def Con from 0.00277544 to 0.00277544
Heightened Def Con from 0.00277544 to 0.00277544
Heightened Def Con from 0.00277544 to 0.00277544
Heightened Def Con from 0.00277544 to 0.00277544
Heightened Def Con from 0.00277544 to 0.00277545
Heightened Def Con from 0.00277545 to 0.00277545
Heightened Def Con from 0.00277545 to 0.00277545
Heightened Def Con from 0.00277545 to 0.00277545
Heightened Def Con from 0.00277545 to 0.00277545
Heightened Def Con from 0.00277545 to 0.00277545
Heightened Def Con from 0.00277545 to 0.00277545
Heightened Def Con from 0.00277545 to 0.00277546
Heightened Def Con from 0.00277552 to 0.00277552
Heightened Def Con from 0.00277552 to 0.00277552
Heightened Def Con from 0.00277553 to 0.00277553
Heightened Def Con from 0.00277554 to 0.00277554
Heightened Def Con from 0.00277554 to 0.00277554
Heightened Def Con from 0.00277554 to 0.00277554
Heightened Def Con from 0.00277554 to 0.00277554
Heightened Def Con from 0.00277603 to 0.00277603
Heightened Def Con from 0.00277604 to 0.00277604
Heightened Def Con from 0.00277605 to 0.00277605
Heightened Def Con from 0.00277605 to 0.00277605
Heightened Def Con from 0.00277605 to 0.00277605
Heightened Def Con from 0.00277606 to 0.00277606
Heightened Def Con from 0.00277606 to 0.00277606
Heightened Def Con from 0.00277606 to 0.00277606
Heightened Def Con from 0.00277606 to 0.00277606
Heightened Def Con from 0.00277606 to 0.00277606
Heightened Def Con from 0.00278522 to 0.00278522
Heightened Def Con from 0.00278522 to 0.00278522
Heightened Def Con from 0.00278523 to 0.00278524
Heightened Def Con from 0.00278524 to 0.00278524
Heightened Def Con from 0.00278524 to 0.00278524
Heightened Def Con from 0.00278525 to 0.00278525
Heightened Def Con from 0.00278526 to 0.00278526
Heightened Def Con from 0.00278526 to 0.00278526
Heightened Def Con from 0.00278526 to 0.00278526
Heightened Def Con from 0.00278526 to 0.00278526
Heightened Def Con from 0.00278526 to 0.00278526
Heightened Def Con from 0.00278526 to 0.00278526
Heightened Def Con from 0.00278526 to 0.00278526
Heightened Def Con from 0.00278526 to 0.00278526
Heightened Def Con from 0.00278532 to 0.00278532
Heightened Def Con from 0.00278532 to 0.00278532
Heightened Def Con from 0.00278532 to 0.00278532
Heightened Def Con from 0.00278532 to 0.00278532
Heightened Def Con from 0.00278532 to 0.00278532
Heightened Def Con from 0.00278532 to 0.00278532
Heightened Def Con from 0.00278532 to 0.00278532
Heightened Def Con from 0.00278532 to 0.00278533
Heightened Def Con from 0.00278533 to 0.00278533
Heightened Def Con from 0.00278533 to 0.00278533
Heightened Def Con from 0.00278533 to 0.00278533
Heightened Def Con from 0.00278533 to 0.00278533
Heightened Def Con from 0.00278533 to 0.00278533
Heightened Def Con from 0.00278533 to 0.00278534
Heightened Def Con from 0.00278534 to 0.00278534
Heightened Def Con from 0.00278534 to 0.00278534
Heightened Def Con from 0.00278534 to 0.00278534
Heightened Def Con from 0.00278534 to 0.00278535
Heightened Def Con from 0.00278539 to 0.00278539
Heightened Def Con from 0.00278539 to 0.00278539
Heightened Def Con from 0.0027854 to 0.0027854
Heightened Def Con from 0.0027854 to 0.0027854
Heightened Def Con from 0.00278541 to 0.00278541
Heightened Def Con from 0.00278541 to 0.00278541
Heightened Def Con from 0.00278541 to 0.00278541
Heightened Def Con from 0.00278541 to 0.00278541
Heightened Def Con from 0.00278541 to 0.00278541
Heightened Def Con from 0.00278541 to 0.00278541
Heightened Def Con from 0.00278541 to 0.00278541
Heightened Def Con from 0.00278541 to 0.00278542
Heightened Def Con from 0.00278544 to 0.00278544
Heightened Def Con from 0.00278544 to 0.00278544
Heightened Def Con from 0.00278544 to 0.00278544
Heightened Def Con from 0.00278544 to 0.00278544
Heightened Def Con from 0.00278544 to 0.00278544
Heightened Def Con from 0.00278551 to 0.00278551
Heightened Def Con from 0.00278551 to 0.00278552
Heightened Def Con from 0.00278567 to 0.00278567
Heightened Def Con from 0.00278567 to 0.00278567
Heightened Def Con from 0.00278567 to 0.00278567
Heightened Def Con from 0.00278567 to 0.00278567
Heightened Def Con from 0.00278567 to 0.00278567
Heightened Def Con from 0.00278567 to 0.00278567
Heightened Def Con from 0.00278567 to 0.00278567
Heightened Def Con from 0.00278567 to 0.00278567
Heightened Def Con from 0.00278567 to 0.00278567
Heightened Def Con from 0.00278567 to 0.00278567
Heightened Def Con from 0.00278567 to 0.00278567
Heightened Def Con from 0.00278567 to 0.00278568
Heightened Def Con from 0.00278568 to 0.00278568
Heightened Def Con from 0.00278568 to 0.00278568
Heightened Def Con from 0.00278575 to 0.00278575
Heightened Def Con from 0.00278575 to 0.00278575
Heightened Def Con from 0.00278576 to 0.00278576
Heightened Def Con from 0.00278576 to 0.00278576
Heightened Def Con from 0.00278576 to 0.00278576
Heightened Def Con from 0.00278576 to 0.00278576
Heightened Def Con from 0.00278576 to 0.00278576
Heightened Def Con from 0.00278607 to 0.00278607
Heightened Def Con from 0.00278607 to 0.00278607
Heightened Def Con from 0.00278607 to 0.00278607
Heightened Def Con from 0.00278607 to 0.00278607
Heightened Def Con from 0.00278607 to 0.00278607
Heightened Def Con from 0.00278607 to 0.00278607
Heightened Def Con from 0.00278607 to 0.00278607
Heightened Def Con from 0.00278607 to 0.00278608
Heightened Def Con from 0.00278608 to 0.00278608
Heightened Def Con from 0.00278608 to 0.00278609
Heightened Def Con from 0.00278609 to 0.00278609
Heightened Def Con from 0.00278609 to 0.00278609
Heightened Def Con from 0.00278609 to 0.00278609
Heightened Def Con from 0.00278609 to 0.00278609
Heightened Def Con from 0.00278609 to 0.00278609
Heightened Def Con from 0.00278609 to 0.00278609
Heightened Def Con from 0.00278609 to 0.00278609
Heightened Def Con from 0.00278609 to 0.00278609
Heightened Def Con from 0.00278609 to 0.0027861
Heightened Def Con from 0.0027861 to 0.0027861
Heightened Def Con from 0.0027861 to 0.0027861
Heightened Def Con from 0.00278611 to 0.00278611
Heightened Def Con from 0.00278611 to 0.00278611
Heightened Def Con from 0.00278612 to 0.00278612
Heightened Def Con from 0.00278612 to 0.00278612
Heightened Def Con from 0.00278612 to 0.00278612
Heightened Def Con from 0.0027863 to 0.0027863
Heightened Def Con from 0.0027863 to 0.0027863
Heightened Def Con from 0.0027863 to 0.0027863
Heightened Def Con from 0.00278631 to 0.00278632
Heightened Def Con from 0.00278633 to 0.00278633
Heightened Def Con from 0.00278633 to 0.00278633
Heightened Def Con from 0.00278633 to 0.00278633
Heightened Def Con from 0.00278634 to 0.00278634
Heightened Def Con from 0.00278634 to 0.00278634
Heightened Def Con from 0.00278634 to 0.00278634
Heightened Def Con from 0.00278634 to 0.00278634
Heightened Def Con from 0.00278634 to 0.00278634
Heightened Def Con from 0.00278634 to 0.00278635
Heightened Def Con from 0.00278635 to 0.00278635
Heightened Def Con from 0.00278635 to 0.00278635
Heightened Def Con from 0.00278636 to 0.00278636
Heightened Def Con from 0.00278636 to 0.00278636
Heightened Def Con from 0.00278636 to 0.00278636
Heightened Def Con from 0.00278636 to 0.00278636
Heightened Def Con from 0.00278636 to 0.00278636
Heightened Def Con from 0.00278636 to 0.00278636
Heightened Def Con from 0.00278636 to 0.00278636
Heightened Def Con from 0.00278636 to 0.00278636
Heightened Def Con from 0.00278636 to 0.00278636
Heightened Def Con from 0.00278637 to 0.00278637
Heightened Def Con from 0.00278637 to 0.00278637
Heightened Def Con from 0.00278637 to 0.00278637
Heightened Def Con from 0.00278637 to 0.00278637
Heightened Def Con from 0.00278637 to 0.00278637
Heightened Def Con from 0.00278644 to 0.00278644
Heightened Def Con from 0.00278644 to 0.00278644
Heightened Def Con from 0.00278644 to 0.00278644
Heightened Def Con from 0.00278644 to 0.00278644
Heightened Def Con from 0.00278644 to 0.00278645
Heightened Def Con from 0.00278645 to 0.00278646
Heightened Def Con from 0.00278646 to 0.00278646
Heightened Def Con from 0.00278646 to 0.00278647
Heightened Def Con from 0.00278647 to 0.00278647
Heightened Def Con from 0.00278647 to 0.00278647
Heightened Def Con from 0.00278647 to 0.00278647
Heightened Def Con from 0.00278647 to 0.00278647
Heightened Def Con from 0.00278647 to 0.00278647
Heightened Def Con from 0.00278648 to 0.00278648
Heightened Def Con from 0.00278648 to 0.00278648
Heightened Def Con from 0.00278648 to 0.00278648
Heightened Def Con from 0.00278669 to 0.00278669
Heightened Def Con from 0.00278669 to 0.00278669
Heightened Def Con from 0.00278669 to 0.00278669
Heightened Def Con from 0.00278669 to 0.0027867
Heightened Def Con from 0.0027867 to 0.0027867
Heightened Def Con from 0.00278671 to 0.00278672
Heightened Def Con from 0.00278672 to 0.00278672
Heightened Def Con from 0.00278672 to 0.00278672
Heightened Def Con from 0.00278672 to 0.00278672
Heightened Def Con from 0.00278672 to 0.00278673
Heightened Def Con from 0.00278673 to 0.00278673
Heightened Def Con from 0.00278673 to 0.00278673
Heightened Def Con from 0.00278673 to 0.00278673
Heightened Def Con from 0.00278673 to 0.00278673
Heightened Def Con from 0.00278673 to 0.00278673
Heightened Def Con from 0.00278673 to 0.00278673
Heightened Def Con from 0.00278673 to 0.00278673
Heightened Def Con from 0.00278673 to 0.00278673
Heightened Def Con from 0.00278673 to 0.00278673
Heightened Def Con from 0.00278673 to 0.00278673
Heightened Def Con from 0.00278673 to 0.00278673
Heightened Def Con from 0.00278675 to 0.00278675
Heightened Def Con from 0.00278675 to 0.00278676
Heightened Def Con from 0.00278676 to 0.00278676
Heightened Def Con from 0.00279501 to 0.00279501
Heightened Def Con from 0.00279501 to 0.00279501
Heightened Def Con from 0.00279501 to 0.00279501
Heightened Def Con from 0.00279501 to 0.00279501
Heightened Def Con from 0.00279501 to 0.00279501
Heightened Def Con from 0.00279501 to 0.00279502
Heightened Def Con from 0.00279502 to 0.00279502
Heightened Def Con from 0.00279502 to 0.00279502
Heightened Def Con from 0.00279502 to 0.00279502
Heightened Def Con from 0.00279502 to 0.00279502
Heightened Def Con from 0.0027953 to 0.0027953
Heightened Def Con from 0.0027953 to 0.0027953
Heightened Def Con from 0.0027953 to 0.0027953
Heightened Def Con from 0.0027953 to 0.0027953
Heightened Def Con from 0.0027953 to 0.00279531
Heightened Def Con from 0.00279531 to 0.00279531
Heightened Def Con from 0.00279531 to 0.00279531
Heightened Def Con from 0.00279531 to 0.00279531
Heightened Def Con from 0.00279531 to 0.00279531
Heightened Def Con from 0.00279531 to 0.00279531
Heightened Def Con from 0.00279531 to 0.00279531
Heightened Def Con from 0.00279531 to 0.00279531
Heightened Def Con from 0.00279532 to 0.00279532
Heightened Def Con from 0.00279532 to 0.00279532
Heightened Def Con from 0.00279532 to 0.00279533
Heightened Def Con from 0.00279534 to 0.00279534
Heightened Def Con from 0.00279535 to 0.00279535
Heightened Def Con from 0.00279535 to 0.00279535
Heightened Def Con from 0.00279535 to 0.00279535
Heightened Def Con from 0.00279535 to 0.00279535
Heightened Def Con from 0.00279538 to 0.00279538
Heightened Def Con from 0.00279539 to 0.00279539
Heightened Def Con from 0.00279539 to 0.00279539
Heightened Def Con from 0.00279539 to 0.00279539
Heightened Def Con from 0.0027954 to 0.0027954
Heightened Def Con from 0.0027954 to 0.0027954
Heightened Def Con from 0.00279541 to 0.00279541
Heightened Def Con from 0.00279541 to 0.00279541
Heightened Def Con from 0.00279541 to 0.00279541
Heightened Def Con from 0.00279542 to 0.00279542
Heightened Def Con from 0.00279548 to 0.00279548
Heightened Def Con from 0.00279548 to 0.00279548
Heightened Def Con from 0.00279548 to 0.00279548
Heightened Def Con from 0.00279548 to 0.00279548
Heightened Def Con from 0.00279548 to 0.00279548
Heightened Def Con from 0.00279548 to 0.00279548
Heightened Def Con from 0.0027955 to 0.0027955
Heightened Def Con from 0.0027955 to 0.0027955
Heightened Def Con from 0.0027955 to 0.0027955
Heightened Def Con from 0.0027955 to 0.0027955
Heightened Def Con from 0.0027955 to 0.0027955
Heightened Def Con from 0.0027955 to 0.00279551
Heightened Def Con from 0.00279552 to 0.00279552
Heightened Def Con from 0.00279552 to 0.00279552
Heightened Def Con from 0.00279552 to 0.00279552
Heightened Def Con from 0.00279552 to 0.00279552
Heightened Def Con from 0.00279553 to 0.00279553
Heightened Def Con from 0.00279553 to 0.00279553
Heightened Def Con from 0.00279553 to 0.00279553
Heightened Def Con from 0.00279553 to 0.00279553
Heightened Def Con from 0.00279554 to 0.00279554
Heightened Def Con from 0.00279554 to 0.00279554
Heightened Def Con from 0.00279554 to 0.00279554
Heightened Def Con from 0.00279554 to 0.00279554
Heightened Def Con from 0.00279555 to 0.00279555
Heightened Def Con from 0.00279555 to 0.00279555
Heightened Def Con from 0.00279555 to 0.00279555
Heightened Def Con from 0.00279555 to 0.00279555
Heightened Def Con from 0.00279555 to 0.00279555
Heightened Def Con from 0.00279555 to 0.00279555
Heightened Def Con from 0.00279555 to 0.00279555
Heightened Def Con from 0.00279556 to 0.00279556
Heightened Def Con from 0.00279556 to 0.00279556
Heightened Def Con from 0.00279556 to 0.00279556
Heightened Def Con from 0.00279561 to 0.00279562
Heightened Def Con from 0.00279565 to 0.00279565
Heightened Def Con from 0.00279565 to 0.00279565
Heightened Def Con from 0.00279565 to 0.00279566
Heightened Def Con from 0.00279566 to 0.00279566
Heightened Def Con from 0.00279566 to 0.00279566
Heightened Def Con from 0.0027962 to 0.0027962
Heightened Def Con from 0.0027962 to 0.00279621
Heightened Def Con from 0.00279623 to 0.00279624
Heightened Def Con from 0.00279624 to 0.00279624
Heightened Def Con from 0.00279624 to 0.00279624
Heightened Def Con from 0.00279625 to 0.00279625
Heightened Def Con from 0.00279625 to 0.00279625
Heightened Def Con from 0.00279625 to 0.00279625
Heightened Def Con from 0.00279625 to 0.00279626
Heightened Def Con from 0.00279626 to 0.00279626
Heightened Def Con from 0.00279626 to 0.00279626
Heightened Def Con from 0.00279626 to 0.00279626
Heightened Def Con from 0.00279626 to 0.00279626
Heightened Def Con from 0.00279629 to 0.0027963
Heightened Def Con from 0.0027963 to 0.0027963
Heightened Def Con from 0.0027963 to 0.0027963
Heightened Def Con from 0.0027963 to 0.0027963
Heightened Def Con from 0.0027963 to 0.0027963
Heightened Def Con from 0.0027963 to 0.0027963
Heightened Def Con from 0.0027963 to 0.0027963
Heightened Def Con from 0.0027963 to 0.00279631
Heightened Def Con from 0.00279631 to 0.00279631
Heightened Def Con from 0.00279631 to 0.00279632
Heightened Def Con from 0.00279632 to 0.00279632
Heightened Def Con from 0.00279635 to 0.00279635
Heightened Def Con from 0.00279635 to 0.00279636
Heightened Def Con from 0.00279636 to 0.00279637
Heightened Def Con from 0.00279646 to 0.00279646
Heightened Def Con from 0.00279653 to 0.00279653
Heightened Def Con from 0.00279653 to 0.00279653
Heightened Def Con from 0.00279653 to 0.00279653
Heightened Def Con from 0.00279653 to 0.00279653
Heightened Def Con from 0.00279653 to 0.00279653
Heightened Def Con from 0.00279653 to 0.00279654
Heightened Def Con from 0.00279654 to 0.00279654
Heightened Def Con from 0.00279654 to 0.00279654
Heightened Def Con from 0.00279654 to 0.00279654
Heightened Def Con from 0.00279654 to 0.00279654
Heightened Def Con from 0.00279655 to 0.00279655
Heightened Def Con from 0.00279656 to 0.00279656
Heightened Def Con from 0.00279657 to 0.00279657
Heightened Def Con from 0.0027966 to 0.0027966
Heightened Def Con from 0.0027966 to 0.0027966
Heightened Def Con from 0.0027966 to 0.0027966
Heightened Def Con from 0.00279662 to 0.00279662
Heightened Def Con from 0.00279662 to 0.00279662
Heightened Def Con from 0.00279662 to 0.00279662
Heightened Def Con from 0.00279662 to 0.00279662
Heightened Def Con from 0.00279662 to 0.00279662
Heightened Def Con from 0.00279662 to 0.00279662
Heightened Def Con from 0.00279662 to 0.00279662
Heightened Def Con from 0.00279662 to 0.00279662
Heightened Def Con from 0.00279662 to 0.00279662
Heightened Def Con from 0.00279662 to 0.00279663
Heightened Def Con from 0.00279663 to 0.00279663
Heightened Def Con from 0.00279663 to 0.00279663
Heightened Def Con from 0.00279868 to 0.00279868
Heightened Def Con from 0.00279868 to 0.00279868
Heightened Def Con from 0.00279868 to 0.00279868
Heightened Def Con from 0.00279868 to 0.00279868
Heightened Def Con from 0.00279868 to 0.00279868
Heightened Def Con from 0.00279869 to 0.00279869
Heightened Def Con from 0.00279869 to 0.00279869
Heightened Def Con from 0.00279869 to 0.00279869
Heightened Def Con from 0.00279871 to 0.00279871
Heightened Def Con from 0.00279871 to 0.00279871
Heightened Def Con from 0.00279872 to 0.00279872
Heightened Def Con from 0.00279872 to 0.00279872
Heightened Def Con from 0.00279872 to 0.00279872
Heightened Def Con from 0.00279872 to 0.00279872
Heightened Def Con from 0.00279873 to 0.00279873
Heightened Def Con from 0.00279874 to 0.00279875
Heightened Def Con from 0.00279875 to 0.00279875
Heightened Def Con from 0.00279875 to 0.00279875
Heightened Def Con from 0.00279875 to 0.00279875
Heightened Def Con from 0.00279875 to 0.00279875
Heightened Def Con from 0.00279884 to 0.00279884
Heightened Def Con from 0.00279884 to 0.00279884
Heightened Def Con from 0.00279885 to 0.00279885
Heightened Def Con from 0.00279885 to 0.00279885
Heightened Def Con from 0.00279885 to 0.00279885
Heightened Def Con from 0.00279885 to 0.00279885
Heightened Def Con from 0.00279885 to 0.00279885
Heightened Def Con from 0.00279885 to 0.00279886
Heightened Def Con from 0.00279889 to 0.00279889
Heightened Def Con from 0.00279889 to 0.00279889
Heightened Def Con from 0.00279889 to 0.00279889
Heightened Def Con from 0.00279893 to 0.00279893
Heightened Def Con from 0.00279893 to 0.00279893
Heightened Def Con from 0.00279893 to 0.00279894
Heightened Def Con from 0.00279894 to 0.00279894
Heightened Def Con from 0.00279894 to 0.00279894
Heightened Def Con from 0.00279896 to 0.00279896
Heightened Def Con from 0.00279896 to 0.00279896
Heightened Def Con from 0.00279896 to 0.00279896
Heightened Def Con from 0.00279896 to 0.00279896
Heightened Def Con from 0.00279896 to 0.00279896
Heightened Def Con from 0.00279896 to 0.00279896
Heightened Def Con from 0.00279896 to 0.00279896
Heightened Def Con from 0.00279896 to 0.00279896
Heightened Def Con from 0.00279896 to 0.00279896
Heightened Def Con from 0.00279896 to 0.00279896
Heightened Def Con from 0.00279922 to 0.00279922
Heightened Def Con from 0.00279922 to 0.00279922
Heightened Def Con from 0.00279927 to 0.00279927
Heightened Def Con from 0.00279927 to 0.00279927
Heightened Def Con from 0.00279927 to 0.00279927
Heightened Def Con from 0.00279931 to 0.00279931
Heightened Def Con from 0.00279931 to 0.00279931
Heightened Def Con from 0.00279931 to 0.00279931
Heightened Def Con from 0.00279931 to 0.00279931
Heightened Def Con from 0.00279931 to 0.00279931
Heightened Def Con from 0.00279931 to 0.00279931
Heightened Def Con from 0.00279932 to 0.00279932
Heightened Def Con from 0.00279932 to 0.00279932
Heightened Def Con from 0.00279934 to 0.00279934
Heightened Def Con from 0.00279934 to 0.00279934
Heightened Def Con from 0.00279935 to 0.00279936
Heightened Def Con from 0.00279937 to 0.00279937
Heightened Def Con from 0.00279937 to 0.00279937
Heightened Def Con from 0.00279937 to 0.00279938
Heightened Def Con from 0.00279939 to 0.00279939
Heightened Def Con from 0.0027994 to 0.0027994
Heightened Def Con from 0.0027994 to 0.0027994
Heightened Def Con from 0.0027994 to 0.0027994
Heightened Def Con from 0.0027994 to 0.0027994
Heightened Def Con from 0.00279941 to 0.00279941
Heightened Def Con from 0.00279941 to 0.00279941
Heightened Def Con from 0.00279954 to 0.00279954
Heightened Def Con from 0.00279955 to 0.00279955
Heightened Def Con from 0.00279955 to 0.00279955
Heightened Def Con from 0.00279955 to 0.00279955
Heightened Def Con from 0.00279955 to 0.00279955
Heightened Def Con from 0.00279957 to 0.00279957
Heightened Def Con from 0.00279957 to 0.00279957
Heightened Def Con from 0.00279957 to 0.00279957
Heightened Def Con from 0.00279957 to 0.00279957
Heightened Def Con from 0.00279957 to 0.00279957
Heightened Def Con from 0.00279957 to 0.00279957
Heightened Def Con from 0.00279957 to 0.00279957
Heightened Def Con from 0.00279957 to 0.00279957
Heightened Def Con from 0.00279958 to 0.00279958
Heightened Def Con from 0.00279958 to 0.00279958
Heightened Def Con from 0.00279958 to 0.00279958
Heightened Def Con from 0.00279958 to 0.00279959
Heightened Def Con from 0.00279959 to 0.00279959
Heightened Def Con from 0.00279959 to 0.00279959
Heightened Def Con from 0.00279959 to 0.00279959
Heightened Def Con from 0.00279959 to 0.00279959
Heightened Def Con from 0.00279959 to 0.00279959
Heightened Def Con from 0.0027996 to 0.0027996
Heightened Def Con from 0.0027996 to 0.0027996
Heightened Def Con from 0.0027996 to 0.0027996
Heightened Def Con from 0.00279964 to 0.00279964
Heightened Def Con from 0.00279965 to 0.00279965
Heightened Def Con from 0.00279965 to 0.00279965
Heightened Def Con from 0.00279965 to 0.00279965
Heightened Def Con from 0.00279965 to 0.00279965
Heightened Def Con from 0.00279965 to 0.00279966
Heightened Def Con from 0.00279966 to 0.00279966
Heightened Def Con from 0.00279966 to 0.00279966
Heightened Def Con from 0.00279966 to 0.00279966
Heightened Def Con from 0.00279966 to 0.00279966
Heightened Def Con from 0.00279966 to 0.00279966
Heightened Def Con from 0.00279967 to 0.00279967
Heightened Def Con from 0.00279967 to 0.00279967
Heightened Def Con from 0.00279967 to 0.00279967
Heightened Def Con from 0.00279968 to 0.00279968
Heightened Def Con from 0.00279968 to 0.00279968
Heightened Def Con from 0.00279968 to 0.00279968
Heightened Def Con from 0.00279972 to 0.00279972
Heightened Def Con from 0.00279972 to 0.00279972
Heightened Def Con from 0.00279972 to 0.00279972
Heightened Def Con from 0.00279972 to 0.00279972
Heightened Def Con from 0.00279972 to 0.00279972
Heightened Def Con from 0.00279974 to 0.00279974
Heightened Def Con from 0.00279976 to 0.00279976
Heightened Def Con from 0.00279976 to 0.00279976
Heightened Def Con from 0.00279976 to 0.00279976
Heightened Def Con from 0.00279976 to 0.00279976
Heightened Def Con from 0.00279976 to 0.00279976
Heightened Def Con from 0.00279976 to 0.00279976
Heightened Def Con from 0.00279976 to 0.00279977
Heightened Def Con from 0.00279977 to 0.00279977
Heightened Def Con from 0.00279977 to 0.00279977
Heightened Def Con from 0.00279977 to 0.00279977
Heightened Def Con from 0.00279979 to 0.00279979
Heightened Def Con from 0.0027998 to 0.0027998
Heightened Def Con from 0.0027998 to 0.0027998
Heightened Def Con from 0.0027998 to 0.0027998
Heightened Def Con from 0.0027998 to 0.0027998
Heightened Def Con from 0.0027998 to 0.0027998
Heightened Def Con from 0.00279981 to 0.00279981
Heightened Def Con from 0.00279981 to 0.00279981
Heightened Def Con from 0.00279982 to 0.00279982
Heightened Def Con from 0.00279985 to 0.00279985
Heightened Def Con from 0.00279985 to 0.00279985
Heightened Def Con from 0.00279985 to 0.00279985
Heightened Def Con from 0.00279985 to 0.00279985
Heightened Def Con from 0.00279986 to 0.00279986
Heightened Def Con from 0.00279986 to 0.00279986
Heightened Def Con from 0.00279986 to 0.00279986
Heightened Def Con from 0.00279986 to 0.00279987
Heightened Def Con from 0.00279988 to 0.00279988
Heightened Def Con from 0.00279988 to 0.00279988
Heightened Def Con from 0.00279988 to 0.00279988
Heightened Def Con from 0.00279988 to 0.00279988
Heightened Def Con from 0.00279989 to 0.00279989
Heightened Def Con from 0.00279989 to 0.00279989
Heightened Def Con from 0.00279989 to 0.00279989
Heightened Def Con from 0.00279989 to 0.00279989
Heightened Def Con from 0.0027999 to 0.0027999
Heightened Def Con from 0.0027999 to 0.0027999
Heightened Def Con from 0.0027999 to 0.0027999
Heightened Def Con from 0.0027999 to 0.0027999
Heightened Def Con from 0.0027999 to 0.00279991
Heightened Def Con from 0.00279998 to 0.00279998
Heightened Def Con from 0.00279998 to 0.00279998
Heightened Def Con from 0.00279998 to 0.00279998
Heightened Def Con from 0.00279999 to 0.00279999
Heightened Def Con from 0.00279999 to 0.00279999
Heightened Def Con from 0.0028 to 0.0028
Heightened Def Con from 0.0028 to 0.0028
Heightened Def Con from 0.0028 to 0.0028
Heightened Def Con from 0.0028 to 0.0028
Heightened Def Con from 0.0028 to 0.0028
Heightened Def Con from 0.0028 to 0.0028
Heightened Def Con from 0.0028 to 0.0028
Heightened Def Con from 0.0028 to 0.0028
Heightened Def Con from 0.0028 to 0.0028
Heightened Def Con from 0.0028 to 0.0028
Heightened Def Con from 0.00280002 to 0.00280002
Heightened Def Con from 0.00280002 to 0.00280002
Heightened Def Con from 0.00280002 to 0.00280002
Heightened Def Con from 0.00280002 to 0.00280002
Heightened Def Con from 0.00280002 to 0.00280002
Heightened Def Con from 0.00280003 to 0.00280003
Heightened Def Con from 0.00280003 to 0.00280003
Heightened Def Con from 0.00280003 to 0.00280003
Heightened Def Con from 0.00280003 to 0.00280003
Heightened Def Con from 0.00280003 to 0.00280004
Heightened Def Con from 0.00280004 to 0.00280004
Heightened Def Con from 0.00280004 to 0.00280004
Heightened Def Con from 0.00280004 to 0.00280005
Heightened Def Con from 0.00280005 to 0.00280005
Heightened Def Con from 0.00280005 to 0.00280005
Heightened Def Con from 0.00280006 to 0.00280006
Heightened Def Con from 0.00280006 to 0.00280006
Heightened Def Con from 0.00280007 to 0.00280007
Heightened Def Con from 0.00280007 to 0.00280007
Heightened Def Con from 0.00280008 to 0.00280008
Heightened Def Con from 0.00280008 to 0.00280008
Heightened Def Con from 0.00280008 to 0.00280008
Heightened Def Con from 0.00280008 to 0.00280008
Heightened Def Con from 0.00280008 to 0.00280008
Heightened Def Con from 0.00280008 to 0.00280008
Heightened Def Con from 0.00280008 to 0.00280009
Heightened Def Con from 0.00280009 to 0.00280009
Heightened Def Con from 0.0028001 to 0.0028001
Heightened Def Con from 0.0028001 to 0.0028001
Heightened Def Con from 0.0028001 to 0.0028001
Heightened Def Con from 0.00280011 to 0.00280011
Heightened Def Con from 0.00280012 to 0.00280012
Heightened Def Con from 0.00280012 to 0.00280012
Heightened Def Con from 0.00280194 to 0.00280194
Heightened Def Con from 0.00280194 to 0.00280194
Heightened Def Con from 0.00280194 to 0.00280194
Heightened Def Con from 0.00280194 to 0.00280194
Heightened Def Con from 0.00280194 to 0.00280194
Heightened Def Con from 0.00280194 to 0.00280194
Heightened Def Con from 0.00280194 to 0.00280194
Heightened Def Con from 0.00280194 to 0.00280194
Heightened Def Con from 0.00280194 to 0.00280195
Heightened Def Con from 0.00280195 to 0.00280195
Heightened Def Con from 0.00280195 to 0.00280195
Heightened Def Con from 0.00280195 to 0.00280195
Heightened Def Con from 0.00280195 to 0.00280195
Heightened Def Con from 0.00280195 to 0.00280195
Heightened Def Con from 0.00280195 to 0.00280196
Heightened Def Con from 0.00280197 to 0.00280197
Heightened Def Con from 0.00280197 to 0.00280197
Heightened Def Con from 0.00280197 to 0.00280197
Heightened Def Con from 0.00280197 to 0.00280197
Heightened Def Con from 0.00280197 to 0.00280197
Heightened Def Con from 0.00280197 to 0.00280198
Heightened Def Con from 0.00280199 to 0.00280199
Heightened Def Con from 0.00280199 to 0.00280199
Heightened Def Con from 0.00280199 to 0.00280199
Heightened Def Con from 0.002802 to 0.002802
Heightened Def Con from 0.002802 to 0.002802
Heightened Def Con from 0.002802 to 0.002802
Heightened Def Con from 0.002802 to 0.002802
Heightened Def Con from 0.002802 to 0.002802
Heightened Def Con from 0.002802 to 0.002802
Heightened Def Con from 0.002802 to 0.002802
Heightened Def Con from 0.002802 to 0.002802
Heightened Def Con from 0.002802 to 0.00280201
Heightened Def Con from 0.00280201 to 0.00280201
Heightened Def Con from 0.00280201 to 0.00280201
Heightened Def Con from 0.00280201 to 0.00280201
Heightened Def Con from 0.00280201 to 0.00280201
Heightened Def Con from 0.00280201 to 0.00280201
Heightened Def Con from 0.00280202 to 0.00280202
Heightened Def Con from 0.00280202 to 0.00280202
Heightened Def Con from 0.00280202 to 0.00280202
Heightened Def Con from 0.00280204 to 0.00280204
Heightened Def Con from 0.00280204 to 0.00280204
Heightened Def Con from 0.00280204 to 0.00280204
Heightened Def Con from 0.00280207 to 0.00280207
Heightened Def Con from 0.00280207 to 0.00280207
Heightened Def Con from 0.00280207 to 0.00280207
Heightened Def Con from 0.00280207 to 0.00280207
Heightened Def Con from 0.00280207 to 0.00280208
Heightened Def Con from 0.00280208 to 0.00280208
Heightened Def Con from 0.00280208 to 0.00280208
Heightened Def Con from 0.00280208 to 0.00280208
Heightened Def Con from 0.00280208 to 0.00280208
Heightened Def Con from 0.00280209 to 0.00280209
Heightened Def Con from 0.00280209 to 0.00280209
Heightened Def Con from 0.00280209 to 0.00280209
Heightened Def Con from 0.00280209 to 0.00280209
Heightened Def Con from 0.00280209 to 0.00280209
Heightened Def Con from 0.00280209 to 0.0028021
Heightened Def Con from 0.00280217 to 0.00280217
Heightened Def Con from 0.00280217 to 0.00280217
Heightened Def Con from 0.00280217 to 0.00280217
Heightened Def Con from 0.00280217 to 0.00280217
Heightened Def Con from 0.00280217 to 0.00280218
Heightened Def Con from 0.00280218 to 0.00280218
Heightened Def Con from 0.00280218 to 0.00280218
Heightened Def Con from 0.00280218 to 0.00280218
Heightened Def Con from 0.00280218 to 0.00280218
Heightened Def Con from 0.00280218 to 0.00280218
Heightened Def Con from 0.00280218 to 0.00280218
Heightened Def Con from 0.00280218 to 0.00280219
Heightened Def Con from 0.00280219 to 0.00280219
Heightened Def Con from 0.00280219 to 0.00280219
Heightened Def Con from 0.0028022 to 0.0028022
Heightened Def Con from 0.0028022 to 0.0028022
Heightened Def Con from 0.0028022 to 0.0028022
Heightened Def Con from 0.0028022 to 0.0028022
Heightened Def Con from 0.0028022 to 0.0028022
Heightened Def Con from 0.0028022 to 0.0028022
Heightened Def Con from 0.0028022 to 0.0028022
Heightened Def Con from 0.0028022 to 0.0028022
Heightened Def Con from 0.0028022 to 0.0028022
Heightened Def Con from 0.0028022 to 0.00280221
Heightened Def Con from 0.00280221 to 0.00280221
Heightened Def Con from 0.00280221 to 0.00280221
Heightened Def Con from 0.00280221 to 0.00280221
Heightened Def Con from 0.00280221 to 0.00280221
Heightened Def Con from 0.00280221 to 0.00280222
Heightened Def Con from 0.00280222 to 0.00280222
Heightened Def Con from 0.00280222 to 0.00280222
Heightened Def Con from 0.00280222 to 0.00280222
Heightened Def Con from 0.00280222 to 0.00280222
Heightened Def Con from 0.00280222 to 0.00280222
Heightened Def Con from 0.00280222 to 0.00280222
Heightened Def Con from 0.00280222 to 0.00280222
Heightened Def Con from 0.00280222 to 0.00280222
Heightened Def Con from 0.00280223 to 0.00280223
Heightened Def Con from 0.00280223 to 0.00280223
Heightened Def Con from 0.00280223 to 0.00280223
Heightened Def Con from 0.00280223 to 0.00280223
Heightened Def Con from 0.00280223 to 0.00280223
Heightened Def Con from 0.00280223 to 0.00280223
Heightened Def Con from 0.00280223 to 0.00280223
Heightened Def Con from 0.00280223 to 0.00280223
Heightened Def Con from 0.00280223 to 0.00280223
Heightened Def Con from 0.00280223 to 0.00280223
Heightened Def Con from 0.00280224 to 0.00280224
Heightened Def Con from 0.00280224 to 0.00280224
Heightened Def Con from 0.00280224 to 0.00280224
Heightened Def Con from 0.00280224 to 0.00280224
Heightened Def Con from 0.00280224 to 0.00280224
Heightened Def Con from 0.00280224 to 0.00280225
Heightened Def Con from 0.00280225 to 0.00280225
Heightened Def Con from 0.00280225 to 0.00280225
Heightened Def Con from 0.00280225 to 0.00280225
Heightened Def Con from 0.00280225 to 0.00280225
Heightened Def Con from 0.00280225 to 0.00280225
Heightened Def Con from 0.00280225 to 0.00280225
Heightened Def Con from 0.00280225 to 0.00280225
Heightened Def Con from 0.00280225 to 0.00280225
Heightened Def Con from 0.00280225 to 0.00280225
Heightened Def Con from 0.00280225 to 0.00280225
Heightened Def Con from 0.00280225 to 0.00280225
Heightened Def Con from 0.00280225 to 0.00280225
Heightened Def Con from 0.00280225 to 0.00280225
Heightened Def Con from 0.00280225 to 0.00280225
Heightened Def Con from 0.00280225 to 0.00280225
Heightened Def Con from 0.00280225 to 0.00280225
Heightened Def Con from 0.00280225 to 0.00280225
Heightened Def Con from 0.00280225 to 0.00280225
Heightened Def Con from 0.00280225 to 0.00280225
Heightened Def Con from 0.00280225 to 0.00280225
Heightened Def Con from 0.00280225 to 0.00280225
Heightened Def Con from 0.00280225 to 0.00280225
Heightened Def Con from 0.00280226 to 0.00280226
Heightened Def Con from 0.00280226 to 0.00280226
Heightened Def Con from 0.00280226 to 0.00280226
Heightened Def Con from 0.00280226 to 0.00280226
Heightened Def Con from 0.00280226 to 0.00280226
Heightened Def Con from 0.00280226 to 0.00280226
Heightened Def Con from 0.00280226 to 0.00280226
Heightened Def Con from 0.00280226 to 0.00280226
Heightened Def Con from 0.00280226 to 0.00280226
Heightened Def Con from 0.00280226 to 0.00280226
Heightened Def Con from 0.00280227 to 0.00280227
Heightened Def Con from 0.00280227 to 0.00280227
Heightened Def Con from 0.00280227 to 0.00280228
Heightened Def Con from 0.00280228 to 0.00280228
Heightened Def Con from 0.00280228 to 0.00280228
Heightened Def Con from 0.00280228 to 0.00280228
Heightened Def Con from 0.00280228 to 0.00280228
Heightened Def Con from 0.00280228 to 0.00280228
Heightened Def Con from 0.00280228 to 0.00280228
Heightened Def Con from 0.00280228 to 0.00280228
Heightened Def Con from 0.00280228 to 0.00280228
Heightened Def Con from 0.00280229 to 0.00280229
Heightened Def Con from 0.00280232 to 0.00280232
Heightened Def Con from 0.00280232 to 0.00280232
Heightened Def Con from 0.00280232 to 0.00280233
Heightened Def Con from 0.00280233 to 0.00280233
Heightened Def Con from 0.00280235 to 0.00280235
Heightened Def Con from 0.00280235 to 0.00280235
Heightened Def Con from 0.00280235 to 0.00280235
Heightened Def Con from 0.00280235 to 0.00280235
Heightened Def Con from 0.00280235 to 0.00280235
Heightened Def Con from 0.00280235 to 0.00280235
Heightened Def Con from 0.00280235 to 0.00280235
Heightened Def Con from 0.00280235 to 0.00280235
Heightened Def Con from 0.00280235 to 0.00280235
Heightened Def Con from 0.00280235 to 0.00280235
Heightened Def Con from 0.00280235 to 0.00280235
Heightened Def Con from 0.00280235 to 0.00280235
Heightened Def Con from 0.00280235 to 0.00280235
Heightened Def Con from 0.00280235 to 0.00280235
Heightened Def Con from 0.00280235 to 0.00280236
Heightened Def Con from 0.00280239 to 0.00280239
Heightened Def Con from 0.00280239 to 0.00280239
Heightened Def Con from 0.00280239 to 0.00280239
Heightened Def Con from 0.00280239 to 0.00280239
Heightened Def Con from 0.00280239 to 0.00280239
Heightened Def Con from 0.00280239 to 0.00280239
Heightened Def Con from 0.00280239 to 0.00280239
Heightened Def Con from 0.00280239 to 0.00280239
Heightened Def Con from 0.00280239 to 0.00280239
Heightened Def Con from 0.00280239 to 0.00280239
Heightened Def Con from 0.00280239 to 0.0028024
Heightened Def Con from 0.0028024 to 0.0028024
Heightened Def Con from 0.0028024 to 0.0028024
Heightened Def Con from 0.0028024 to 0.0028024
Heightened Def Con from 0.0028024 to 0.0028024
Heightened Def Con from 0.0028024 to 0.0028024
Heightened Def Con from 0.0028024 to 0.0028024
Heightened Def Con from 0.0028024 to 0.0028024
Heightened Def Con from 0.00280242 to 0.00280242
Heightened Def Con from 0.00280242 to 0.00280242
Heightened Def Con from 0.00280242 to 0.00280242
Heightened Def Con from 0.00280242 to 0.00280242
Heightened Def Con from 0.00280242 to 0.00280242
Heightened Def Con from 0.00280242 to 0.00280242
Heightened Def Con from 0.00280242 to 0.00280242
Heightened Def Con from 0.00280242 to 0.00280242
Heightened Def Con from 0.00280242 to 0.00280242
Heightened Def Con from 0.00280242 to 0.00280242
Heightened Def Con from 0.00280242 to 0.00280242
Heightened Def Con from 0.00280242 to 0.00280242
[...]
Heightened Def Con from 0.0328 to 0.0328
Heightened Def Con from 0.0328 to 0.0328
Heightened Def Con from 0.0328 to 0.0328
Heightened Def Con from 0.0328018 to 0.0328018
Heightened Def Con from 0.0328018 to 0.0328018
Heightened Def Con from 0.0328018 to 0.0328018
Heightened Def Con from 0.0328018 to 0.0328018
Heightened Def Con from 0.0328018 to 0.0328018
Heightened Def Con from 0.0328018 to 0.0328018
Heightened Def Con from 0.0328018 to 0.0328018
Heightened Def Con from 0.0328019 to 0.0328019
Heightened Def Con from 0.032802 to 0.032802
Heightened Def Con from 0.0328024 to 0.0328024
Heightened Def Con from 0.0328024 to 0.0328024
Heightened Def Con from 0.0328024 to 0.0328024
Heightened Def Con from 0.0328024 to 0.0328024
Heightened Def Con from 0.0328024 to 0.0328024
Heightened Def Con from 0.0328024 to 0.0328024
Heightened Def Con from 0.0328024 to 0.0328024
Heightened Def Con from 0.0328024 to 0.0328024
Heightened Def Con from 0.0328024 to 0.0328024
Heightened Def Con from 0.0328024 to 0.0328024
Heightened Def Con from 0.0328024 to 0.0328024
Heightened Def Con from 0.0328024 to 0.0328024
Heightened Def Con from 0.0328024 to 0.0328024
Heightened Def Con from 0.0328024 to 0.0328024
Heightened Def Con from 0.0328024 to 0.0328024
Heightened Def Con from 0.0328024 to 0.0328024
Heightened Def Con from 0.0328024 to 0.0328024
Heightened Def Con from 0.0328024 to 0.0328024
Heightened Def Con from 0.0328024 to 0.0328024
Heightened Def Con from 0.0328024 to 0.0328024
Heightened Def Con from 0.0328024 to 0.0328024
Heightened Def Con from 0.0328024 to 0.0328024
Heightened Def Con from 0.0328024 to 0.0328024
Heightened Def Con from 0.0328024 to 0.0328024
Heightened Def Con from 0.0328025 to 0.0328025
Heightened Def Con from 0.0328025 to 0.0328025
Heightened Def Con from 0.0328025 to 0.0328025
Heightened Def Con from 0.0328025 to 0.0328025
Heightened Def Con from 0.0328025 to 0.0328025
Heightened Def Con from 0.0328025 to 0.0328025
Heightened Def Con from 0.0328025 to 0.0328025
Heightened Def Con from 0.0328025 to 0.0328025
Heightened Def Con from 0.0328025 to 0.0328025
Heightened Def Con from 0.0328025 to 0.0328025
Heightened Def Con from 0.0328025 to 0.0328025
Heightened Def Con from 0.0328025 to 0.0328025
Heightened Def Con from 0.0328025 to 0.0328025
Heightened Def Con from 0.0328025 to 0.0328025
Heightened Def Con from 0.0328025 to 0.0328025
Heightened Def Con from 0.0328025 to 0.0328025
Heightened Def Con from 0.0328025 to 0.0328025
Heightened Def Con from 0.0328025 to 0.0328025
Heightened Def Con from 0.0328025 to 0.0328025
Heightened Def Con from 0.0328025 to 0.0328025
Heightened Def Con from 0.0328025 to 0.0328025
Heightened Def Con from 0.0328025 to 0.0328025
Heightened Def Con from 0.0328025 to 0.0328025
Heightened Def Con from 0.0328025 to 0.0328025
Heightened Def Con from 0.0328025 to 0.0328025
Heightened Def Con from 0.0328025 to 0.0328025
Heightened Def Con from 0.0328025 to 0.0328025
Heightened Def Con from 0.0328025 to 0.0328025
Heightened Def Con from 0.0328025 to 0.0328025
Heightened Def Con from 0.0328025 to 0.0328025
Heightened Def Con from 0.0328025 to 0.0328025
Heightened Def Con from 0.0328025 to 0.0328025
Heightened Def Con from 0.0328025 to 0.0328025
Heightened Def Con from 0.0328025 to 0.0328025
Heightened Def Con from 0.0328026 to 0.0328026
Heightened Def Con from 0.0328026 to 0.0328026
Heightened Def Con from 0.0328026 to 0.0328026
Heightened Def Con from 0.0328026 to 0.0328026
Heightened Def Con from 0.0328026 to 0.0328026
Heightened Def Con from 0.0328026 to 0.0328026
Heightened Def Con from 0.0328026 to 0.0328026
Heightened Def Con from 0.0328026 to 0.0328026
Heightened Def Con from 0.0328026 to 0.0328026
Heightened Def Con from 0.0328026 to 0.0328026
Heightened Def Con from 0.0328026 to 0.0328026
Heightened Def Con from 0.0328026 to 0.0328026
Heightened Def Con from 0.0328027 to 0.0328027
Heightened Def Con from 0.0328027 to 0.0328027
Heightened Def Con from 0.0328027 to 0.0328027
Heightened Def Con from 0.0328027 to 0.0328027
Heightened Def Con from 0.0328027 to 0.0328027
Heightened Def Con from 0.0328027 to 0.0328027
Heightened Def Con from 0.0328027 to 0.0328027
Heightened Def Con from 0.0328027 to 0.0328027
Heightened Def Con from 0.0328027 to 0.0328027
Heightened Def Con from 0.0328027 to 0.0328027
Heightened Def Con from 0.0328027 to 0.0328027
Heightened Def Con from 0.0328027 to 0.0328027
Heightened Def Con from 0.0328027 to 0.0328027
Heightened Def Con from 0.0328027 to 0.0328027
Heightened Def Con from 0.0328027 to 0.0328027
Heightened Def Con from 0.0328027 to 0.0328027
Heightened Def Con from 0.0328027 to 0.0328027
Heightened Def Con from 0.0328027 to 0.0328027
Heightened Def Con from 0.0328027 to 0.0328027
Heightened Def Con from 0.0328027 to 0.0328027
Heightened Def Con from 0.0328027 to 0.0328027
Heightened Def Con from 0.0328027 to 0.0328027
Heightened Def Con from 0.0328027 to 0.0328027
Heightened Def Con from 0.0328027 to 0.0328027
Heightened Def Con from 0.0328027 to 0.0328027
Heightened Def Con from 0.0328027 to 0.0328027
Heightened Def Con from 0.0328027 to 0.0328027
Heightened Def Con from 0.0328027 to 0.0328027
Heightened Def Con from 0.0328028 to 0.0328028
Heightened Def Con from 0.0328028 to 0.0328028
Heightened Def Con from 0.0328028 to 0.0328028
Heightened Def Con from 0.0328028 to 0.0328028
Heightened Def Con from 0.0328028 to 0.0328028
Heightened Def Con from 0.0328028 to 0.0328028
Heightened Def Con from 0.0328028 to 0.0328028
Heightened Def Con from 0.0328028 to 0.0328028
Heightened Def Con from 0.0328028 to 0.0328028
Heightened Def Con from 0.0328028 to 0.0328028
Heightened Def Con from 0.0328028 to 0.0328028
Heightened Def Con from 0.0328028 to 0.0328028
Heightened Def Con from 0.0328028 to 0.0328028
Heightened Def Con from 0.0328028 to 0.0328028
Heightened Def Con from 0.0328028 to 0.0328028
Heightened Def Con from 0.0328028 to 0.0328028
Heightened Def Con from 0.0328028 to 0.0328028
Heightened Def Con from 0.0328028 to 0.0328028
Heightened Def Con from 0.0328028 to 0.0328028
Heightened Def Con from 0.0328028 to 0.0328028
Heightened Def Con from 0.0328028 to 0.0328028
Heightened Def Con from 0.0328028 to 0.0328028
Heightened Def Con from 0.0328028 to 0.0328028
Heightened Def Con from 0.0328028 to 0.0328028
Heightened Def Con from 0.0328028 to 0.0328028
Heightened Def Con from 0.0328028 to 0.0328028
Heightened Def Con from 0.0328028 to 0.0328028
Heightened Def Con from 0.0328028 to 0.0328028
Heightened Def Con from 0.0328028 to 0.0328028
Heightened Def Con from 0.0328028 to 0.0328028
Heightened Def Con from 0.0328028 to 0.0328028
Heightened Def Con from 0.0328028 to 0.0328028
Heightened Def Con from 0.0328028 to 0.0328028
Heightened Def Con from 0.0328028 to 0.0328028
Heightened Def Con from 0.0328028 to 0.0328028
Heightened Def Con from 0.0328028 to 0.0328028
Heightened Def Con from 0.0328028 to 0.0328028
Heightened Def Con from 0.0328028 to 0.0328028
Heightened Def Con from 0.0328028 to 0.0328028
Heightened Def Con from 0.0328028 to 0.0328028
Heightened Def Con from 0.0328028 to 0.0328028
Heightened Def Con from 0.0328028 to 0.0328028
Heightened Def Con from 0.0328028 to 0.0328028
Heightened Def Con from 0.0328028 to 0.0328028
Heightened Def Con from 0.0328028 to 0.0328028
Heightened Def Con from 0.0328028 to 0.0328028
Heightened Def Con from 0.0328028 to 0.0328028
Heightened Def Con from 0.0328028 to 0.0328028
Heightened Def Con from 0.0328028 to 0.0328028
Heightened Def Con from 0.0328028 to 0.0328028
Heightened Def Con from 0.0328028 to 0.0328028
Heightened Def Con from 0.0328028 to 0.0328028
Heightened Def Con from 0.0328028 to 0.0328028
Heightened Def Con from 0.0328028 to 0.0328028
Heightened Def Con from 0.032803 to 0.032803
Heightened Def Con from 0.032803 to 0.032803
Heightened Def Con from 0.032803 to 0.032803
Heightened Def Con from 0.0328058 to 0.0328059
Heightened Def Con from 0.0328059 to 0.0328059
Heightened Def Con from 0.0328059 to 0.0328059
Heightened Def Con from 0.0328059 to 0.0328059
Heightened Def Con from 0.0328059 to 0.0328059
Heightened Def Con from 0.0328059 to 0.0328059
Heightened Def Con from 0.0328059 to 0.0328059
Heightened Def Con from 0.0328059 to 0.0328059
Heightened Def Con from 0.0328059 to 0.0328059
Heightened Def Con from 0.0328059 to 0.0328059
Heightened Def Con from 0.0328059 to 0.0328059
Heightened Def Con from 0.0328059 to 0.0328059
Heightened Def Con from 0.0328061 to 0.0328061
Heightened Def Con from 0.0328061 to 0.0328061
Heightened Def Con from 0.0328061 to 0.0328061
Heightened Def Con from 0.0328061 to 0.0328061
Heightened Def Con from 0.0328061 to 0.0328061
Heightened Def Con from 0.0328061 to 0.0328061
Heightened Def Con from 0.0328061 to 0.0328061
Heightened Def Con from 0.0328063 to 0.0328064
Heightened Def Con from 0.0328064 to 0.0328064
Heightened Def Con from 0.0328064 to 0.0328064
Heightened Def Con from 0.0328064 to 0.0328064
Heightened Def Con from 0.0328064 to 0.0328064
Heightened Def Con from 0.0328064 to 0.0328064
Heightened Def Con from 0.0328064 to 0.0328064
Heightened Def Con from 0.0328064 to 0.0328064
Heightened Def Con from 0.0328064 to 0.0328064
Heightened Def Con from 0.0328064 to 0.0328064
Heightened Def Con from 0.0328064 to 0.0328064
Heightened Def Con from 0.0328064 to 0.0328064
Heightened Def Con from 0.0328064 to 0.0328064
Heightened Def Con from 0.0328065 to 0.0328065
Heightened Def Con from 0.0328065 to 0.0328065
Heightened Def Con from 0.0328065 to 0.0328065
Heightened Def Con from 0.0328065 to 0.0328065
Heightened Def Con from 0.0328065 to 0.0328065
Heightened Def Con from 0.0328065 to 0.0328065
Heightened Def Con from 0.0328065 to 0.0328065
Heightened Def Con from 0.0328065 to 0.0328065
Heightened Def Con from 0.0328065 to 0.0328065
Heightened Def Con from 0.0328065 to 0.0328065
Heightened Def Con from 0.0328065 to 0.0328066
Heightened Def Con from 0.0328066 to 0.0328066
Heightened Def Con from 0.0328066 to 0.0328066
Heightened Def Con from 0.0328066 to 0.0328066
Heightened Def Con from 0.0328066 to 0.0328066
Heightened Def Con from 0.0328066 to 0.0328066
Heightened Def Con from 0.0328066 to 0.0328066
Heightened Def Con from 0.0328066 to 0.0328066
Heightened Def Con from 0.0328066 to 0.0328066
Heightened Def Con from 0.0328066 to 0.0328066
Heightened Def Con from 0.0328066 to 0.0328066
Heightened Def Con from 0.0328066 to 0.0328066
Heightened Def Con from 0.0328067 to 0.0328067
Heightened Def Con from 0.0328067 to 0.0328067
Heightened Def Con from 0.0328067 to 0.0328067
Heightened Def Con from 0.0328067 to 0.0328067
Heightened Def Con from 0.0328067 to 0.0328067
Heightened Def Con from 0.0328067 to 0.0328067
Heightened Def Con from 0.0328067 to 0.0328067
Heightened Def Con from 0.0328067 to 0.0328067
Heightened Def Con from 0.0328067 to 0.0328067
Heightened Def Con from 0.0328068 to 0.0328068
Heightened Def Con from 0.0328068 to 0.0328068
Heightened Def Con from 0.0328068 to 0.0328068
Heightened Def Con from 0.0328068 to 0.0328068
Heightened Def Con from 0.0328068 to 0.0328068
Heightened Def Con from 0.0328068 to 0.0328068
Heightened Def Con from 0.0328139 to 0.0328139
Heightened Def Con from 0.0328139 to 0.0328139
Heightened Def Con from 0.0328139 to 0.0328139
Heightened Def Con from 0.0328139 to 0.0328139
Heightened Def Con from 0.0328139 to 0.0328139
Heightened Def Con from 0.0328139 to 0.0328139
Heightened Def Con from 0.0328139 to 0.0328139
Heightened Def Con from 0.0328139 to 0.0328139
Heightened Def Con from 0.0328139 to 0.0328139
Heightened Def Con from 0.032814 to 0.032814
Heightened Def Con from 0.032814 to 0.032814
Heightened Def Con from 0.032814 to 0.032814
Heightened Def Con from 0.032814 to 0.032814
Heightened Def Con from 0.032814 to 0.032814
Heightened Def Con from 0.032814 to 0.032814
Heightened Def Con from 0.032814 to 0.032814
Heightened Def Con from 0.032814 to 0.032814
Heightened Def Con from 0.032814 to 0.032814
Heightened Def Con from 0.032814 to 0.032814
Heightened Def Con from 0.032814 to 0.032814
Heightened Def Con from 0.032814 to 0.032814
Heightened Def Con from 0.032814 to 0.032814
Heightened Def Con from 0.032814 to 0.032814
Heightened Def Con from 0.032814 to 0.032814
Heightened Def Con from 0.032814 to 0.032814
Heightened Def Con from 0.0328141 to 0.0328141
Heightened Def Con from 0.0328141 to 0.0328141
Heightened Def Con from 0.0328141 to 0.0328141
Heightened Def Con from 0.0328141 to 0.0328141
Heightened Def Con from 0.0328142 to 0.0328142
Heightened Def Con from 0.0328142 to 0.0328142
Heightened Def Con from 0.0328142 to 0.0328142
Heightened Def Con from 0.0328142 to 0.0328142
Heightened Def Con from 0.0328144 to 0.0328144
Heightened Def Con from 0.0328144 to 0.0328144
Heightened Def Con from 0.0328144 to 0.0328144
Heightened Def Con from 0.0328144 to 0.0328144
Heightened Def Con from 0.0328144 to 0.0328144
Heightened Def Con from 0.0328144 to 0.0328144
Heightened Def Con from 0.0328144 to 0.0328144
Heightened Def Con from 0.0328144 to 0.0328144
Heightened Def Con from 0.0328144 to 0.0328144
Heightened Def Con from 0.0328144 to 0.0328144
Heightened Def Con from 0.0328144 to 0.0328144
Heightened Def Con from 0.0328144 to 0.0328144
Heightened Def Con from 0.0328145 to 0.0328145
Heightened Def Con from 0.0328145 to 0.0328145
Heightened Def Con from 0.0328145 to 0.0328145
Heightened Def Con from 0.0328145 to 0.0328145
Heightened Def Con from 0.0328146 to 0.0328146
Heightened Def Con from 0.0328146 to 0.0328146
Heightened Def Con from 0.0328146 to 0.0328146
Heightened Def Con from 0.0328146 to 0.0328146
Heightened Def Con from 0.0328146 to 0.0328146
Heightened Def Con from 0.0328146 to 0.0328146
Heightened Def Con from 0.0328146 to 0.0328146
Heightened Def Con from 0.0328146 to 0.0328146
Heightened Def Con from 0.0328147 to 0.0328147
Heightened Def Con from 0.0328147 to 0.0328147
Heightened Def Con from 0.0328148 to 0.0328148
Heightened Def Con from 0.0328148 to 0.0328148
Heightened Def Con from 0.0328148 to 0.0328148
Heightened Def Con from 0.0328148 to 0.0328148
Heightened Def Con from 0.0328148 to 0.0328148
Heightened Def Con from 0.0328148 to 0.0328148
Heightened Def Con from 0.0328148 to 0.0328148
Heightened Def Con from 0.0328149 to 0.0328149
Heightened Def Con from 0.0328149 to 0.0328149
Heightened Def Con from 0.0328166 to 0.0328166
Heightened Def Con from 0.0328166 to 0.0328166
Heightened Def Con from 0.0328166 to 0.0328166
Heightened Def Con from 0.0328166 to 0.0328166
Heightened Def Con from 0.0328166 to 0.0328166
Heightened Def Con from 0.0328166 to 0.0328166
Heightened Def Con from 0.0328167 to 0.0328167
Heightened Def Con from 0.0328167 to 0.0328167
Heightened Def Con from 0.0328167 to 0.0328167
Heightened Def Con from 0.0328167 to 0.0328167
Heightened Def Con from 0.0328167 to 0.0328167
Heightened Def Con from 0.0328167 to 0.0328167
Heightened Def Con from 0.0328167 to 0.0328167
Heightened Def Con from 0.0328167 to 0.0328167
Heightened Def Con from 0.0328167 to 0.0328167
Heightened Def Con from 0.0328167 to 0.0328167
Heightened Def Con from 0.0328167 to 0.0328167
Heightened Def Con from 0.0328167 to 0.0328167
Heightened Def Con from 0.0328167 to 0.0328167
Heightened Def Con from 0.0328167 to 0.0328167
Heightened Def Con from 0.0328167 to 0.0328167
Heightened Def Con from 0.0328167 to 0.0328167
Heightened Def Con from 0.0328167 to 0.0328167
Heightened Def Con from 0.0328167 to 0.0328167
Heightened Def Con from 0.0328173 to 0.0328173
Heightened Def Con from 0.0328173 to 0.0328173
Heightened Def Con from 0.0328173 to 0.0328173
Heightened Def Con from 0.0328173 to 0.0328173
Heightened Def Con from 0.0328173 to 0.0328173
Heightened Def Con from 0.0328173 to 0.0328173
Heightened Def Con from 0.0328173 to 0.0328173
Heightened Def Con from 0.0328173 to 0.0328173
Heightened Def Con from 0.0328173 to 0.0328173
Heightened Def Con from 0.0328173 to 0.0328173
Heightened Def Con from 0.0328173 to 0.0328173
Heightened Def Con from 0.0328173 to 0.0328173
Heightened Def Con from 0.0328173 to 0.0328173
Heightened Def Con from 0.0328173 to 0.0328173
Heightened Def Con from 0.0328173 to 0.0328173
Heightened Def Con from 0.0328173 to 0.0328173
Heightened Def Con from 0.0328173 to 0.0328173
Heightened Def Con from 0.0328173 to 0.0328173
Heightened Def Con from 0.0328173 to 0.0328173
Heightened Def Con from 0.0328173 to 0.0328173
Heightened Def Con from 0.0328173 to 0.0328173
Heightened Def Con from 0.0328173 to 0.0328173
Heightened Def Con from 0.0328173 to 0.0328174
Heightened Def Con from 0.0328174 to 0.0328174
Heightened Def Con from 0.0328174 to 0.0328174
Heightened Def Con from 0.0328174 to 0.0328174
Heightened Def Con from 0.032819 to 0.032819
Heightened Def Con from 0.032819 to 0.032819
Heightened Def Con from 0.032819 to 0.032819
Heightened Def Con from 0.032819 to 0.032819
Heightened Def Con from 0.032819 to 0.032819
Heightened Def Con from 0.032819 to 0.032819
Heightened Def Con from 0.032819 to 0.032819
Heightened Def Con from 0.032819 to 0.032819
Heightened Def Con from 0.0328191 to 0.0328191
Heightened Def Con from 0.0328191 to 0.0328191
Heightened Def Con from 0.0328191 to 0.0328191
Heightened Def Con from 0.0328191 to 0.0328191
Heightened Def Con from 0.0328191 to 0.0328191
Heightened Def Con from 0.0328191 to 0.0328191
Heightened Def Con from 0.0328191 to 0.0328191
Heightened Def Con from 0.0328191 to 0.0328191
Heightened Def Con from 0.0328191 to 0.0328191
Heightened Def Con from 0.0328191 to 0.0328191
Heightened Def Con from 0.0328191 to 0.0328191
Heightened Def Con from 0.0328191 to 0.0328191
Heightened Def Con from 0.0328191 to 0.0328191
Heightened Def Con from 0.0328191 to 0.0328191
Heightened Def Con from 0.0328191 to 0.0328191
Heightened Def Con from 0.0328192 to 0.0328192
Heightened Def Con from 0.0328192 to 0.0328192
Heightened Def Con from 0.0328192 to 0.0328192
Heightened Def Con from 0.0328192 to 0.0328192
Heightened Def Con from 0.0328195 to 0.0328195
Heightened Def Con from 0.0328195 to 0.0328195
Heightened Def Con from 0.0328195 to 0.0328196
Heightened Def Con from 0.0328202 to 0.0328202
Heightened Def Con from 0.0328202 to 0.0328202
Heightened Def Con from 0.0328202 to 0.0328202
Heightened Def Con from 0.0328202 to 0.0328202
Heightened Def Con from 0.0328203 to 0.0328203
Heightened Def Con from 0.0328203 to 0.0328203
Heightened Def Con from 0.0328203 to 0.0328203
Heightened Def Con from 0.0328203 to 0.0328203
Heightened Def Con from 0.0328203 to 0.0328203
Heightened Def Con from 0.0328203 to 0.0328203
Heightened Def Con from 0.0328203 to 0.0328203
Heightened Def Con from 0.0328203 to 0.0328203
Heightened Def Con from 0.0328209 to 0.0328209
Heightened Def Con from 0.0328209 to 0.0328209
Heightened Def Con from 0.0328209 to 0.0328209
Heightened Def Con from 0.0328209 to 0.0328209
Heightened Def Con from 0.0328209 to 0.0328209
Heightened Def Con from 0.0328209 to 0.0328209
Heightened Def Con from 0.0328209 to 0.0328209
Heightened Def Con from 0.0328209 to 0.0328209
Heightened Def Con from 0.0328209 to 0.0328209
Heightened Def Con from 0.0328209 to 0.0328209
Heightened Def Con from 0.0328209 to 0.0328209
Heightened Def Con from 0.0328209 to 0.0328209
Heightened Def Con from 0.0328209 to 0.0328209
Heightened Def Con from 0.0328209 to 0.0328209
Heightened Def Con from 0.0328209 to 0.0328209
Heightened Def Con from 0.0328209 to 0.0328209
Heightened Def Con from 0.0328209 to 0.0328209
Heightened Def Con from 0.0328209 to 0.0328209
Heightened Def Con from 0.0328209 to 0.0328209
Heightened Def Con from 0.032821 to 0.032821
Heightened Def Con from 0.032821 to 0.032821
Heightened Def Con from 0.032821 to 0.032821
Heightened Def Con from 0.032821 to 0.032821
Heightened Def Con from 0.032821 to 0.032821
Heightened Def Con from 0.032821 to 0.032821
Heightened Def Con from 0.032821 to 0.032821
Heightened Def Con from 0.032821 to 0.032821
Heightened Def Con from 0.032821 to 0.032821
Heightened Def Con from 0.032821 to 0.032821
Heightened Def Con from 0.032821 to 0.032821
Heightened Def Con from 0.0328211 