Circuit: * C:\Users\Leon\Archivos personales\Universidad\4_GIERM\Instr_Acond_Signal\Proyecto\ServoAmplifier\ServoAmplifier\IGBT_configuration\NoIdealVoltageSupply\FullWaveRectfier.asc

Direct Newton iteration for .op point succeeded.

vrect_ef: RMS(v(vrect,vr))=392.218 FROM 0 TO 0.04
vrect_avg: AVG(v(vrect,vr))=392.207 FROM 0 TO 0.04


Date: Sun Jun 18 17:19:23 2023
Total elapsed time: 0.077 seconds.

tnom = 27
temp = 27
method = modified trap
totiter = 2893
traniter = 2877
tranpoints = 1077
accept = 1066
rejected = 11
matrix size = 8
fillins = 0
solver = Normal
Avg thread counts: 1.5/2.3/2.2/1.5
Matrix Compiler1:      17 opcodes  0.1/[0.1]/0.2
Matrix Compiler2: 602 bytes object code size  0.1/0.2/[0.1]

