Circuit: * C:\Users\Leon\Archivos personales\Universidad\4_GIERM\Instr_Acond_Signal\Proyecto\ServoAmplifier\ServoAmplifier\IGBT_configuration\IXYT_IBGT_AC_Analasys\analisis_AC_IGBT.asc

Direct Newton iteration for .op point succeeded.

Date: Sun Jun 18 17:20:57 2023
Total elapsed time: 0.049 seconds.

tnom = 27
temp = 27
method = trap
totiter = 5
traniter = 0
tranpoints = 0
accept = 0
rejected = 0
matrix size = 8
fillins = 0
solver = Normal
Avg thread counts: 16.0/0.0/16.0/1.3
Matrix Compiler1:      23 opcodes
Matrix Compiler2: 636 bytes object code size
